*EXP.DETAILS: BRKS1107LT RAINFED LENTIL AT SWIFT CURRENT - SEVEN YEAR STUDY

*GENERAL
@PEOPLE
AAFC
@ADDRESS
960 Carling OTTAWA
@SITE
Swift Current Canada
@ PAREA  PRNO  PLEN  PLDR  PLSP  PLAY HAREA  HRNO  HLEN  HARM.........
     12   -99   -99   -99   -99   -99   -99   -99   -99   -99
@NOTES
Rainfed, rotated lentils at Swif Current-1150


*TREATMENTS                        -------------FACTOR LEVELS------------
@N R O C TNAME.................... CU FL SA IC MP MI MF MR MC MT ME MH SM
 1 0 0 0 Rotated Maxim 2011         1  1  0  1  1  0  1  0  0  0  0  0  1
 2 0 0 0 Rotated Maxim 2012         1  1  0  2  2  0  2  0  0  0  0  0  2
 3 0 0 0 Rotated Maxim 2013         1  1  0  3  3  0  3  0  0  0  0  0  3
 4 0 0 0 Rotated Maxim 2015         1  1  0  4  4  0  4  0  0  0  0  0  4
 5 0 0 0 Rotated Maxim 2016         1  1  0  5  5  0  5  0  0  0  0  0  5
 6 0 0 0 Rotated Maxim 2017         1  1  0  6  6  0  6  0  0  0  0  0  6
 7 0 0 0 Rotated Maxim 2019         1  1  0  7  7  0  7  0  0  0  0  0  7

*CULTIVARS
@C CR INGENO CNAME
 1 LT CAND04 CDC Maxim

*FIELDS
@L ID_FIELD WSTA....  FLSA  FLOB  FLDT  FLDD  FLDS  FLST SLTX  SLDP  ID_SOIL    FLNAME
 1 SWCO0001 BRKS1109     0     0   -99     0     0    0S SIL    150  CAAB000001 -99
@L ...........XCRD ...........YCRD .....ELEV .............AREA .SLEN .FLWR .SLAS FLHST FHDUR
 1          -107.3           50.28        90                 0     0     0     0 FH101   -99

*SOIL ANALYSIS
@A SADAT  SMHB  SMPX  SMKE  SANAME
 1 21100 SA011   -99   -99  -99
@A  SABL  SADM  SAOC  SANI SAPHW SAPHB  SAPX  SAKE  SASC
 1    10   1.1   1.7   -99   7.3   -99   -99   -99   -99

*INITIAL CONDITIONS
@C   PCR ICDAT  ICRT  ICND  ICRN  ICRE  ICWD ICRES ICREN ICREP ICRIP ICRID ICNAME
 1    WH 11001   900   -99     1     1   -99  4000     1     0    10    15 -99
@C  ICBL  SH2O  SNH4  SNO3
 1    10    .3     1  10.6
 1    20    .3     1   7.4
 1    30    .3    .2   1.3
 1    40    .3    .2   1.1
 1    50   .29    .2   1.1
 1    60   .28    .2   1.1
 1    80    .3    .2   1.1
 1   100    .3    .2   1.1
 1   150    .3    .2   1.1
@C   PCR ICDAT  ICRT  ICND  ICRN  ICRE  ICWD ICRES ICREN ICREP ICRIP ICRID ICNAME
 2    WH 12001   900     0     1     1   -99  4000     1     0    10    15 -99
@C  ICBL  SH2O  SNH4  SNO3
 2    10    .3     1  10.6
 2    20    .3     1   7.4
 2    30    .3    .2   1.3
 2    40    .3    .2   1.1
 2    50   .29    .2   1.1
 2    60   .28    .2   1.1
 2    80    .3    .2   1.1
 2   100    .3    .2   1.1
 2   150    .3    .2   1.1
@C   PCR ICDAT  ICRT  ICND  ICRN  ICRE  ICWD ICRES ICREN ICREP ICRIP ICRID ICNAME
 3    WH 13001   900     0     1     1   -99  4000     1     0    10    15 -99
@C  ICBL  SH2O  SNH4  SNO3
 3    10   .28     1  10.6
 3    20   .28     1   7.4
 3    30    .3    .2   1.3
 3    40    .3    .2   1.1
 3    50   .29    .2   1.1
 3    60   .29    .2   1.1
 3    80    .3    .2   1.1
 3   100    .3    .2   1.1
 3   150    .3    .2   1.1
@C   PCR ICDAT  ICRT  ICND  ICRN  ICRE  ICWD ICRES ICREN ICREP ICRIP ICRID ICNAME
 4    WH 15001   900     0     1     1   -99  4000     1     0    10    15 -99
@C  ICBL  SH2O  SNH4  SNO3
 4    10    .2     1  10.6
 4    20    .2     1   7.4
 4    30    .2    .2   1.3
 4    40    .2    .2   1.1
 4    50    .2    .2   1.1
 4    60    .2    .2   1.1
 4    80    .3    .2   1.1
 4   100    .3    .2   1.1
 4   150    .3    .2   1.1
@C   PCR ICDAT  ICRT  ICND  ICRN  ICRE  ICWD ICRES ICREN ICREP ICRIP ICRID ICNAME
 5    WH 16001   900     0     1     1   -99  4000     1     0    10    15 -99
@C  ICBL  SH2O  SNH4  SNO3
 5    10   .26     1  10.6
 5    20   .26     1   7.4
 5    30   .28    .2   1.3
 5    40   .28    .2   1.1
 5    50   .28    .2   1.1
 5    60   .29    .2   1.1
 5    80    .3    .2   1.1
 5   100    .3    .2   1.1
 5   150    .3    .2   1.1
@C   PCR ICDAT  ICRT  ICND  ICRN  ICRE  ICWD ICRES ICREN ICREP ICRIP ICRID ICNAME
 6    WH 17001   900     0     1     1   -99  3000     1     0    10    15 -99
@C  ICBL  SH2O  SNH4  SNO3
 6    10   .15     1  10.6
 6    20   .15     1   7.4
 6    30   .15    .2   1.3
 6    40   .16    .2   1.1
 6    50   .19    .2   1.1
 6    60   .19    .2   1.1
 6    80   .24    .2   1.1
 6   100   .26    .2   1.1
 6   150   .28    .2   1.1
@C   PCR ICDAT  ICRT  ICND  ICRN  ICRE  ICWD ICRES ICREN ICREP ICRIP ICRID ICNAME
 7    WH 19001   900     0     1     1   -99  2000     1     0    10    15 -99
@C  ICBL  SH2O  SNH4  SNO3
 7    10   .15     1  10.6
 7    20   .16     1   7.4
 7    30   .16    .2   1.3
 7    40   .17    .2   1.1
 7    50    .2    .2   1.1
 7    60    .2    .2   1.1
 7    80   .24    .2   1.1
 7   100   .28    .2   1.1
 7   150   .28    .2   1.1

*PLANTING DETAILS
@P PDATE EDATE  PPOP  PPOE  PLME  PLDS  PLRS  PLRD  PLDP  PLWT  PAGE  PENV  PLPH  SPRL                        PLNAME
 1 11122   -99   120   -99     S     R    25   -99     3   -99   -99   -99   -99     0                        -99
 2 12128   -99   120   -99     S     R    25   -99     3   -99   -99   -99   -99     0                        -99
 3 13126   -99   120   -99     S     R    25   -99     3   -99   -99   -99   -99     0                        -99
 4 15152   -99   120   -99     S     R    25   -99     3   -99   -99   -99   -99     0                        -99
 5 16120   -99   120   -99     S     R    25   -99     3   -99   -99   -99   -99     0                        -99
 6 17124   -99   120   -99     S     R    25   -99     3   -99   -99   -99   -99     0                        -99
 7 19123   -99   120   -99     S     R    25   -99     3   -99   -99   -99   -99     0                        -99

*FERTILIZERS (INORGANIC)
@F FDATE  FMCD  FACD  FDEP  FAMN  FAMP  FAMK  FAMC  FAMO  FOCD FERNAME
 1 11122 FE005 AP002     0     4     0     0     0     0   -99 -99
 2 12128 FE005 AP002     0     5     0     0     0     0   -99 -99
 3 13126 FE005 AP002     0     5     0     0     0     0   -99 -99
 4 15152 FE005 AP002     0     5     0     0     0     0   -99 -99
 5 16120 FE005 AP002     0     5     0     0     0     0   -99 -99
 6 17124 FE005 AP002     0     5     0     0     0     0   -99 -99
 7 19123 FE005 AP002     0     5     0     0     0     0   -99 -99

*RESIDUES AND ORGANIC FERTILIZER
@R RDATE  RCOD  RAMT  RESN  RESP  RESK  RINP  RDEP  RMET RENAME
 1 21001   -99   -99   -99   -99   -99   -99   -99   -99 -99

*CHEMICAL APPLICATIONS
@C CDATE CHCOD CHAMT  CHME CHDEP   CHT..CHNAME
 1 21001   -99   -99   -99   -99   -99  -99

*TILLAGE AND ROTATIONS
@T TDATE TIMPL  TDEP TNAME
 1 21001   -99   -99 -99

*HARVEST DETAILS
@H HDATE  HSTG  HCOM HSIZE   HPC  HBPC HNAME
 1 21001 GS000   -99   -99   -99   -99 

*SIMULATION CONTROLS
@N GENERAL     NYERS NREPS START SDATE RSEED SNAME.................... SMODEL
 1 GE              1     1     S 11001  2150 2006 SIMULATION
@N OPTIONS     WATER NITRO SYMBI PHOSP POTAS DISES  CHEM  TILL   CO2
 1 OP              Y     Y     Y     N     N     N     N     N     M
@N METHODS     WTHER INCON LIGHT EVAPO INFIL PHOTO HYDRO NSWIT MESOM MESEV MESOL
 1 ME              M     M     E     R     S     L     R     1     P     R     1
@N MANAGEMENT  PLANT IRRIG FERTI RESID HARVS
 1 MA              R     R     R     Y     M
@N OUTPUTS     FNAME OVVEW SUMRY FROPT GROUT CAOUT WAOUT NIOUT MIOUT DIOUT VBOSE CHOUT OPOUT FMOPT
 1 OU              N     Y     Y     1     Y     Y     Y     Y     N     N     Y     N     N     A

@  AUTOMATIC MANAGEMENT
@N PLANTING    PFRST PLAST PH2OL PH2OU PH2OD PSTMX PSTMN
 1 PL          86143 86157    40   100    30    40    10
@N IRRIGATION  IMDEP ITHRL ITHRU IROFF IMETH IRAMT IREFF
 1 IR             30    50   100 GS000 IR001    10     1
@N NITROGEN    NMDEP NMTHR NAMNT NCODE NAOFF
 1 NI             30    50    25 FE001 GS000
@N RESIDUES    RIPCN RTIME RIDEP
 1 RE            100     1    20
@N HARVEST     HFRST HLAST HPCNP HPCNR
 1 HA              0 95150   100     0

@N GENERAL     NYERS NREPS START SDATE RSEED SNAME.................... SMODEL
 2 GE              1     1     S 12001  2150 2006 SIMULATION
@N OPTIONS     WATER NITRO SYMBI PHOSP POTAS DISES  CHEM  TILL   CO2
 2 OP              Y     Y     Y     N     N     N     N     N     M
@N METHODS     WTHER INCON LIGHT EVAPO INFIL PHOTO HYDRO NSWIT MESOM MESEV MESOL
 2 ME              M     M     E     R     S     L     R     1     P     R     1
@N MANAGEMENT  PLANT IRRIG FERTI RESID HARVS
 2 MA              R     R     R     N     M
@N OUTPUTS     FNAME OVVEW SUMRY FROPT GROUT CAOUT WAOUT NIOUT MIOUT DIOUT VBOSE CHOUT OPOUT FMOPT
 2 OU              N     Y     Y     1     Y     Y     Y     Y     N     N     Y     N     N     A

@  AUTOMATIC MANAGEMENT
@N PLANTING    PFRST PLAST PH2OL PH2OU PH2OD PSTMX PSTMN
 2 PL          86143 86157    40   100    30    40    10
@N IRRIGATION  IMDEP ITHRL ITHRU IROFF IMETH IRAMT IREFF
 2 IR             30    50   100 GS000 IR001    10     1
@N NITROGEN    NMDEP NMTHR NAMNT NCODE NAOFF
 2 NI             30    50    25 FE001 GS000
@N RESIDUES    RIPCN RTIME RIDEP
 2 RE            100     1    20
@N HARVEST     HFRST HLAST HPCNP HPCNR
 2 HA              0 95150   100     0

@N GENERAL     NYERS NREPS START SDATE RSEED SNAME.................... SMODEL
 3 GE              1     1     S 13001  2150 2006 SIMULATION
@N OPTIONS     WATER NITRO SYMBI PHOSP POTAS DISES  CHEM  TILL   CO2
 3 OP              Y     Y     Y     N     N     N     N     N     M
@N METHODS     WTHER INCON LIGHT EVAPO INFIL PHOTO HYDRO NSWIT MESOM MESEV MESOL
 3 ME              M     M     E     R     S     L     R     1     P     R     1
@N MANAGEMENT  PLANT IRRIG FERTI RESID HARVS
 3 MA              R     R     R     N     M
@N OUTPUTS     FNAME OVVEW SUMRY FROPT GROUT CAOUT WAOUT NIOUT MIOUT DIOUT VBOSE CHOUT OPOUT FMOPT
 3 OU              N     Y     Y     1     Y     Y     Y     Y     N     N     Y     N     N     A

@  AUTOMATIC MANAGEMENT
@N PLANTING    PFRST PLAST PH2OL PH2OU PH2OD PSTMX PSTMN
 3 PL          86143 86157    40   100    30    40    10
@N IRRIGATION  IMDEP ITHRL ITHRU IROFF IMETH IRAMT IREFF
 3 IR             30    50   100 GS000 IR001    10     1
@N NITROGEN    NMDEP NMTHR NAMNT NCODE NAOFF
 3 NI             30    50    25 FE001 GS000
@N RESIDUES    RIPCN RTIME RIDEP
 3 RE            100     1    20
@N HARVEST     HFRST HLAST HPCNP HPCNR
 3 HA              0 95150   100     0

@N GENERAL     NYERS NREPS START SDATE RSEED SNAME.................... SMODEL
 4 GE              1     1     S 15001  2150 2006 SIMULATION
@N OPTIONS     WATER NITRO SYMBI PHOSP POTAS DISES  CHEM  TILL   CO2
 4 OP              Y     Y     Y     N     N     N     N     N     M
@N METHODS     WTHER INCON LIGHT EVAPO INFIL PHOTO HYDRO NSWIT MESOM MESEV MESOL
 4 ME              M     M     E     R     S     L     R     1     P     R     1
@N MANAGEMENT  PLANT IRRIG FERTI RESID HARVS
 4 MA              R     R     R     N     M
@N OUTPUTS     FNAME OVVEW SUMRY FROPT GROUT CAOUT WAOUT NIOUT MIOUT DIOUT VBOSE CHOUT OPOUT FMOPT
 4 OU              N     Y     Y     1     Y     Y     Y     Y     N     N     Y     N     N     A

@  AUTOMATIC MANAGEMENT
@N PLANTING    PFRST PLAST PH2OL PH2OU PH2OD PSTMX PSTMN
 4 PL          86143 86157    40   100    30    40    10
@N IRRIGATION  IMDEP ITHRL ITHRU IROFF IMETH IRAMT IREFF
 4 IR             30    50   100 GS000 IR001    10     1
@N NITROGEN    NMDEP NMTHR NAMNT NCODE NAOFF
 4 NI             30    50    25 FE001 GS000
@N RESIDUES    RIPCN RTIME RIDEP
 4 RE            100     1    20
@N HARVEST     HFRST HLAST HPCNP HPCNR
 4 HA              0 95150   100     0

@N GENERAL     NYERS NREPS START SDATE RSEED SNAME.................... SMODEL
 5 GE              1     1     S 16001  2150 2006 SIMULATION
@N OPTIONS     WATER NITRO SYMBI PHOSP POTAS DISES  CHEM  TILL   CO2
 5 OP              Y     Y     Y     N     N     N     N     N     M
@N METHODS     WTHER INCON LIGHT EVAPO INFIL PHOTO HYDRO NSWIT MESOM MESEV MESOL
 5 ME              M     M     E     R     S     L     R     1     P     R     1
@N MANAGEMENT  PLANT IRRIG FERTI RESID HARVS
 5 MA              R     R     R     N     M
@N OUTPUTS     FNAME OVVEW SUMRY FROPT GROUT CAOUT WAOUT NIOUT MIOUT DIOUT VBOSE CHOUT OPOUT FMOPT
 5 OU              N     Y     Y     1     Y     Y     Y     Y     N     N     Y     N     N     A

@  AUTOMATIC MANAGEMENT
@N PLANTING    PFRST PLAST PH2OL PH2OU PH2OD PSTMX PSTMN
 5 PL          86143 86157    40   100    30    40    10
@N IRRIGATION  IMDEP ITHRL ITHRU IROFF IMETH IRAMT IREFF
 5 IR             30    50   100 GS000 IR001    10     1
@N NITROGEN    NMDEP NMTHR NAMNT NCODE NAOFF
 5 NI             30    50    25 FE001 GS000
@N RESIDUES    RIPCN RTIME RIDEP
 5 RE            100     1    20
@N HARVEST     HFRST HLAST HPCNP HPCNR
 5 HA              0 95150   100     0

@N GENERAL     NYERS NREPS START SDATE RSEED SNAME.................... SMODEL
 6 GE              1     1     S 17001  2150 2006 SIMULATION
@N OPTIONS     WATER NITRO SYMBI PHOSP POTAS DISES  CHEM  TILL   CO2
 6 OP              Y     Y     Y     N     N     N     N     N     M
@N METHODS     WTHER INCON LIGHT EVAPO INFIL PHOTO HYDRO NSWIT MESOM MESEV MESOL
 6 ME              M     M     E     R     S     L     R     1     P     R     1
@N MANAGEMENT  PLANT IRRIG FERTI RESID HARVS
 6 MA              R     R     R     N     M
@N OUTPUTS     FNAME OVVEW SUMRY FROPT GROUT CAOUT WAOUT NIOUT MIOUT DIOUT VBOSE CHOUT OPOUT FMOPT
 6 OU              N     Y     Y     1     Y     Y     Y     Y     N     N     Y     N     N     A

@  AUTOMATIC MANAGEMENT
@N PLANTING    PFRST PLAST PH2OL PH2OU PH2OD PSTMX PSTMN
 6 PL          86143 86157    40   100    30    40    10
@N IRRIGATION  IMDEP ITHRL ITHRU IROFF IMETH IRAMT IREFF
 6 IR             30    50   100 GS000 IR001    10     1
@N NITROGEN    NMDEP NMTHR NAMNT NCODE NAOFF
 6 NI             30    50    25 FE001 GS000
@N RESIDUES    RIPCN RTIME RIDEP
 6 RE            100     1    20
@N HARVEST     HFRST HLAST HPCNP HPCNR
 6 HA              0 95150   100     0

@N GENERAL     NYERS NREPS START SDATE RSEED SNAME.................... SMODEL
 7 GE              1     1     S 19001  2150 2006 SIMULATION
@N OPTIONS     WATER NITRO SYMBI PHOSP POTAS DISES  CHEM  TILL   CO2
 7 OP              Y     Y     Y     N     N     N     N     N     M
@N METHODS     WTHER INCON LIGHT EVAPO INFIL PHOTO HYDRO NSWIT MESOM MESEV MESOL
 7 ME              M     M     E     R     S     L     R     1     P     R     1
@N MANAGEMENT  PLANT IRRIG FERTI RESID HARVS
 7 MA              R     R     R     N     M
@N OUTPUTS     FNAME OVVEW SUMRY FROPT GROUT CAOUT WAOUT NIOUT MIOUT DIOUT VBOSE CHOUT OPOUT FMOPT
 7 OU              N     Y     Y     1     Y     Y     Y     Y     N     N     Y     N     N     A

@  AUTOMATIC MANAGEMENT
@N PLANTING    PFRST PLAST PH2OL PH2OU PH2OD PSTMX PSTMN
 7 PL          86143 86157    40   100    30    40    10
@N IRRIGATION  IMDEP ITHRL ITHRU IROFF IMETH IRAMT IREFF
 7 IR             30    50   100 GS000 IR001    10     1
@N NITROGEN    NMDEP NMTHR NAMNT NCODE NAOFF
 7 NI             30    50    25 FE001 GS000
@N RESIDUES    RIPCN RTIME RIDEP
 7 RE            100     1    20
@N HARVEST     HFRST HLAST HPCNP HPCNR
 7 HA              0 95150   100     0



