*EXP.DETAILS: GLOB1632LT GLOBAL LENTIL EXPERIMENT 9 LOCATIONS 2016-2018

*GENERAL
@PEOPLE
AAFC
@ADDRESS
960 Carling OTTAWA
@SITE
Nine sites across globe
@ PAREA  PRNO  PLEN  PLDR  PLSP  PLAY HAREA  HRNO  HLEN  HARM.........
     12   -99   -99   -99   -99   -99   -99   -99   -99   -99
@NOTES
Rainfed and irrigated


*TREATMENTS                        -------------FACTOR LEVELS------------
@N R O C TNAME.................... CU FL SA IC MP MI MF MR MC MT ME MH SM
 1 0 0 0 CA-Suther 2016             1  1  0  1  1  0  0  0  0  0  0  0  1
 2 0 0 0 CA-Rosth  2016             1  2  0  1  2  0  0  0  0  0  0  0  1
 3 0 0 0 Mo-March  2016             1  3  0  1  3  0  0  0  0  0  0  0  1
 4 0 0 0 IN-Bhopal 2016             1  4  0  1  4  0  0  0  0  0  0  0  1
 5 0 0 0 BGD-Jess  2016             1  5  0  1  5  0  0  0  0  0  0  0  1
 6 0 0 0 ESP-Cordo 2016             1  6  0  1  6  0  0  0  0  0  0  0  1
 7 0 0 0 IT-Metapo 2016             1  7  0  1  7  0  0  0  0  0  0  0  1
 8 0 0 0 Np-Bardiy 2016             1  8  0  1  8  0  0  0  0  0  0  0  1
 9 0 0 0 CA-Suther 2017             1  1  0  1  9  0  0  0  0  0  0  0  2
10 0 0 0 CA-Rosth  2017             1  2  0  1 10  0  0  0  0  0  0  0  2
11 0 0 0 Mo-March  2017             1  3  0  1 11  0  0  0  0  0  0  0  2
12 0 0 0 IN-Bhopal 2017             1  4  0  1 12  0  0  0  0  0  0  0  2
13 0 0 0 BGD-Jess  2017             1  5  0  1 13  0  0  0  0  0  0  0  2
14 0 0 0 ESP-Cordo 2017             1  6  0  1 14  0  0  0  0  0  0  0  2
15 0 0 0 IT-Metapo 2017             1  7  0  1 15  0  0  0  0  0  0  0  2
16 0 0 0 Np-Bardiy 2017             1  8  0  2 16  0  0  0  0  0  0  0  2
17 0 0 0 CA-Suther 2018             1  1  0  1 17  0  0  0  0  0  0  0  2
18 0 0 0 USA-Ferry 2018             1  9  0  1 18  0  0  0  0  0  0  0  3
19 0 0 0 CA-Suther 2016             2  1  0  1  1  0  0  0  0  0  0  0  1
20 0 0 0 CA-Rosth  2016             2  2  0  1  2  0  0  0  0  0  0  0  1
21 0 0 0 Mo-March  2016             2  3  0  1  3  0  0  0  0  0  0  0  1
22 0 0 0 IN-Bhopal 2016             2  4  0  1  4  0  0  0  0  0  0  0  1
23 0 0 0 BGD-Jess  2016             2  5  0  1  5  0  0  0  0  0  0  0  1
24 0 0 0 ESP-Cordo 2016             2  6  0  1  6  0  0  0  0  0  0  0  1
25 0 0 0 IT-Metapo 2016             2  7  0  1  7  0  0  0  0  0  0  0  1
26 0 0 0 Np-Bardiy 2016             2  8  0  1  8  0  0  0  0  0  0  0  1
27 0 0 0 CA-Suther 2017             2  1  0  1  9  0  0  0  0  0  0  0  2
28 0 0 0 CA-Rosth  2017             2  2  0  1 10  0  0  0  0  0  0  0  2
29 0 0 0 Mo-March  2017             2  3  0  1 11  0  0  0  0  0  0  0  2
30 0 0 0 IN-Bhopal 2017             2  4  0  1 12  0  0  0  0  0  0  0  2
31 0 0 0 BGD-Jess  2017             2  5  0  1 13  0  0  0  0  0  0  0  2
32 0 0 0 ESP-Cordo 2017             2  6  0  1 14  0  0  0  0  0  0  0  2
33 0 0 0 IT-Metapo 2017             2  7  0  1 15  0  0  0  0  0  0  0  2
34 0 0 0 Np-Bardiy 2017             2  8  0  2 16  0  0  0  0  0  0  0  2
35 0 0 0 CA-Suther 2018             2  1  0  1 17  0  0  0  0  0  0  0  2
36 0 0 0 USA-Ferry 2018             2  9  0  1 18  0  0  0  0  0  0  0  3

*CULTIVARS
@C CR INGENO CNAME
 1 LT CAND04 CDC Maxim
 2 LT CAND02 CDC Glamis

*FIELDS
@L ID_FIELD WSTA....  FLSA  FLOB  FLDT  FLDD  FLDS  FLST SLTX  SLDP  ID_SOIL    FLNAME
 1 SKSL0001 SKSL1602     0     0   -99     0     0    0S SIL    150  CAOT900010 -99
 2 SKRT0001 SKRT1602     0     0   -99     0     0    0S SIL    150  CAOT900010 -99
 3 MORO0001 MORO1603     0     0   -99     0     0    0S SIL    150  CAMO900010 -99
 4 INDA0001 INDA1603     0     0   -99     0     0    0S SIL    150  CAIN900010 -99
 5 BAGD0001 BAGD1603     0     0   -99     0     0    0S SIL    150  CABD900010 -99
 6 ESPN0001 ESPN1603     0     0   -99     0     0    0S SIL    150  CAES900010 -99
 7 ITAL0001 ITAL1603     0     0   -99     0     0    0S SIL    150  CAIT900010 -99
 8 NEPL0001 NEPL1603     0     0   -99     0     0    0S SIL    150  CANP900010 -99
 9 USAM0001 USAM1801     0     0   -99     0     0    0S SIL    150  CAUS900010 -99
@L ...........XCRD ...........YCRD .....ELEV .............AREA .SLEN .FLWR .SLAS FLHST FHDUR
 1          -107.3           50.28        90                 0     0     0     0 FH101   -99
 2          -107.3           50.28        90                 0     0     0     0 FH101   -99
 3          -107.3           50.28        90                 0     0     0     0 FH101   -99
 4          -107.3           50.28        90                 0     0     0     0 FH101   -99
 5          -107.3           50.28        90                 0     0     0     0 FH101   -99
 6          -107.3           50.28        90                 0     0     0     0 FH101   -99
 7          -107.3           50.28        90                 0     0     0     0 FH101   -99
 8          -107.3           50.28        90                 0     0     0     0 FH101   -99
 9          -107.3           50.28        90                 0     0     0     0 FH101   -99

*SOIL ANALYSIS
@A SADAT  SMHB  SMPX  SMKE  SANAME
 1 21100 SA011   -99   -99  -99
@A  SABL  SADM  SAOC  SANI SAPHW SAPHB  SAPX  SAKE  SASC
 1    10   1.1   1.7   -99   7.3   -99   -99   -99   -99

*INITIAL CONDITIONS
@C   PCR ICDAT  ICRT  ICND  ICRN  ICRE  ICWD ICRES ICREN ICREP ICRIP ICRID ICNAME
 1    WH 16001     0     0     1     1   -99     0     0     0   100    15 -99
@C  ICBL  SH2O  SNH4  SNO3
 1    10   .26     1  10.6
 1    20   .26     1   7.4
 1    30    .3    .2   1.3
 1    40    .3    .2   1.1
 1    50   .29    .2   1.1
 1    60   .29    .2   1.1
 1    80   .31    .2   1.1
 1   100   .32    .2   1.1
 1   150   .32    .2   1.1
@C   PCR ICDAT  ICRT  ICND  ICRN  ICRE  ICWD ICRES ICREN ICREP ICRIP ICRID ICNAME
 2    WH 17031     0     0     1     1   -99     0     0     0   100    15 -99
@C  ICBL  SH2O  SNH4  SNO3
 2    10   .26     1  10.6
 2    20   .26     1   7.4
 2    30    .3    .2   1.3
 2    40    .3    .2   1.1
 2    50   .29    .2   1.1
 2    60   .29    .2   1.1
 2    80   .31    .2   1.1
 2   100   .32    .2   1.1
 2   150   .32    .2   1.1
@C   PCR ICDAT  ICRT  ICND  ICRN  ICRE  ICWD ICRES ICREN ICREP ICRIP ICRID ICNAME
 3    WH 16319     0     0     1     1   -99     0     0     0   100    15 -99
@C  ICBL  SH2O  SNH4  SNO3
 3    10   .21     1  10.6
 3    20   .18     1   7.4
 3    30   .18    .2   1.3
 3    40   .17    .2   1.1
 3    50   .17    .2   1.1
 3    60   .17    .2   1.1
 3    80   .18    .2   1.1
 3   100   .19    .2   1.1

*PLANTING DETAILS
@P PDATE EDATE  PPOP  PPOE  PLME  PLDS  PLRS  PLRD  PLDP  PLWT  PAGE  PENV  PLPH  SPRL                        PLNAME
 1 16118   -99   150   150     S     R    25   -99     6   -99   -99   -99   -99     0                        -99
 2 16127   -99   150   150     S     R    25   -99     4   -99   -99   -99   -99     0                        -99
 3 16326   -99   150   150     S     R    25   -99     5   -99   -99   -99   -99     0                        -99
 4 16339   -99   150   150     S     R    25   -99     5   -99   -99   -99   -99     0                        -99
 5 16320   -99   150   150     S     R    25   -99     5   -99   -99   -99   -99     0                        -99
 6 16348   -99   150   150     S     R    25   -99     8   -99   -99   -99   -99     0                        -99
 7 16334   -99   150   150     S     R    25   -99     8   -99   -99   -99   -99     0                        -99
 8 16319   -99   150   150     S     R    25   -99     8   -99   -99   -99   -99     0                        -99
 9 17124   -99   150   150     S     R    25   -99     6   -99   -99   -99   -99     0                        -99
10 17139   -99   150   150     S     R    25   -99     4   -99   -99   -99   -99     0                        -99
11 17355   -99   150   150     S     R    25   -99     5   -99   -99   -99   -99     0                        -99
12 17313   -99   150   150     S     R    25   -99     5   -99   -99   -99   -99     0                        -99
13 17337   -99   150   150     S     R    25   -99     5   -99   -99   -99   -99     0                        -99
14 17348   -99   150   150     S     R    25   -99     8   -99   -99   -99   -99     0                        -99
15 17332   -99   150   150     S     R    25   -99     8   -99   -99   -99   -99     0                        -99
16 17307   -99   150   150     S     R    25   -99     8   -99   -99   -99   -99     0                        -99
17 18129   -99   150   150     S     R    25   -99     6   -99   -99   -99   -99     0                        -99
18 18088   -99   150   150     S     R    25   -99     6   -99   -99   -99   -99     0                        -99

*FERTILIZERS (INORGANIC)
@F FDATE  FMCD  FACD  FDEP  FAMN  FAMP  FAMK  FAMC  FAMO  FOCD FERNAME
 1 21117 FE005 AP002     0     4     0     0     0     0   -99 -99
 2 21130 FE005 AP002     0     4     0     0     0     0   -99 -99
 3 21139 FE005 AP002     0     4     0     0     0     0   -99 -99
 4 21117 FE005 AP002     0     4     0     0     0     0   -99 -99

*RESIDUES AND ORGANIC FERTILIZER
@R RDATE  RCOD  RAMT  RESN  RESP  RESK  RINP  RDEP  RMET RENAME
 1 21001   -99   -99   -99   -99   -99   -99   -99   -99 -99

*CHEMICAL APPLICATIONS
@C CDATE CHCOD CHAMT  CHME CHDEP   CHT..CHNAME
 1 21001   -99   -99   -99   -99   -99  -99

*TILLAGE AND ROTATIONS
@T TDATE TIMPL  TDEP TNAME
 1 21001   -99   -99 -99

*HARVEST DETAILS
@H HDATE  HSTG  HCOM HSIZE   HPC  HBPC HNAME
 1 21001 GS000   -99   -99   -99   -99 

*SIMULATION CONTROLS
@N GENERAL     NYERS NREPS START SDATE RSEED SNAME.................... SMODEL
 1 GE              1     1     S 16001  2150 2006 SIMULATION
@N OPTIONS     WATER NITRO SYMBI PHOSP POTAS DISES  CHEM  TILL   CO2
 1 OP              Y     Y     Y     N     N     N     N     N     M
@N METHODS     WTHER INCON LIGHT EVAPO INFIL PHOTO HYDRO NSWIT MESOM MESEV MESOL
 1 ME              M     M     E     R     S     L     R     1     P     R     1
@N MANAGEMENT  PLANT IRRIG FERTI RESID HARVS
 1 MA              R     R     R     N     M
@N OUTPUTS     FNAME OVVEW SUMRY FROPT GROUT CAOUT WAOUT NIOUT MIOUT DIOUT VBOSE CHOUT OPOUT FMOPT
 1 OU              N     Y     Y     1     Y     Y     Y     Y     N     N     Y     N     N     A

@  AUTOMATIC MANAGEMENT
@N PLANTING    PFRST PLAST PH2OL PH2OU PH2OD PSTMX PSTMN
 1 PL          86143 86157    40   100    30    40    10
@N IRRIGATION  IMDEP ITHRL ITHRU IROFF IMETH IRAMT IREFF
 1 IR             30    50   100 GS000 IR001    10     1
@N NITROGEN    NMDEP NMTHR NAMNT NCODE NAOFF
 1 NI             30    50    25 FE001 GS000
@N RESIDUES    RIPCN RTIME RIDEP
 1 RE            100     1    20
@N HARVEST     HFRST HLAST HPCNP HPCNR
 1 HA              0 95150   100     0

@N GENERAL     NYERS NREPS START SDATE RSEED SNAME.................... SMODEL
 2 GE              1     1     S 17031  2150 2006 SIMULATION
@N OPTIONS     WATER NITRO SYMBI PHOSP POTAS DISES  CHEM  TILL   CO2
 2 OP              Y     Y     Y     N     N     N     N     N     M
@N METHODS     WTHER INCON LIGHT EVAPO INFIL PHOTO HYDRO NSWIT MESOM MESEV MESOL
 2 ME              M     M     E     R     S     L     R     1     P     R     1
@N MANAGEMENT  PLANT IRRIG FERTI RESID HARVS
 2 MA              R     R     R     N     M
@N OUTPUTS     FNAME OVVEW SUMRY FROPT GROUT CAOUT WAOUT NIOUT MIOUT DIOUT VBOSE CHOUT OPOUT FMOPT
 2 OU              N     Y     Y     1     Y     Y     Y     Y     N     N     Y     N     N     A

@  AUTOMATIC MANAGEMENT
@N PLANTING    PFRST PLAST PH2OL PH2OU PH2OD PSTMX PSTMN
 2 PL          86143 86157    40   100    30    40    10
@N IRRIGATION  IMDEP ITHRL ITHRU IROFF IMETH IRAMT IREFF
 2 IR             30    50   100 GS000 IR001    10     1
@N NITROGEN    NMDEP NMTHR NAMNT NCODE NAOFF
 2 NI             30    50    25 FE001 GS000
@N RESIDUES    RIPCN RTIME RIDEP
 2 RE            100     1    20
@N HARVEST     HFRST HLAST HPCNP HPCNR
 2 HA              0 95150   100     0

@N GENERAL     NYERS NREPS START SDATE RSEED SNAME.................... SMODEL
 3 GE              1     1     S 18001  2150 2006 SIMULATION
@N OPTIONS     WATER NITRO SYMBI PHOSP POTAS DISES  CHEM  TILL   CO2
 3 OP              Y     N     Y     N     N     N     N     N     M
@N METHODS     WTHER INCON LIGHT EVAPO INFIL PHOTO HYDRO NSWIT MESOM MESEV MESOL
 3 ME              M     M     E     R     S     L     R     1     P     R     1
@N MANAGEMENT  PLANT IRRIG FERTI RESID HARVS
 3 MA              R     R     R     N     M
@N OUTPUTS     FNAME OVVEW SUMRY FROPT GROUT CAOUT WAOUT NIOUT MIOUT DIOUT VBOSE CHOUT OPOUT FMOPT
 3 OU              N     Y     Y     1     Y     Y     Y     Y     N     N     Y     N     N     A

@  AUTOMATIC MANAGEMENT
@N PLANTING    PFRST PLAST PH2OL PH2OU PH2OD PSTMX PSTMN
 3 PL          86143 86157    40   100    30    40    10
@N IRRIGATION  IMDEP ITHRL ITHRU IROFF IMETH IRAMT IREFF
 3 IR             30    50   100 GS000 IR001    10     1
@N NITROGEN    NMDEP NMTHR NAMNT NCODE NAOFF
 3 NI             30    50    25 FE001 GS000
@N RESIDUES    RIPCN RTIME RIDEP
 3 RE            100     1    20
@N HARVEST     HFRST HLAST HPCNP HPCNR
 3 HA              0 95150   100     0

@N GENERAL     NYERS NREPS START SDATE RSEED SNAME.................... SMODEL
 4 GE              1     1     S 16319  2150 2006 SIMULATION
@N OPTIONS     WATER NITRO SYMBI PHOSP POTAS DISES  CHEM  TILL   CO2
 4 OP              Y     Y     Y     N     N     N     N     N     M
@N METHODS     WTHER INCON LIGHT EVAPO INFIL PHOTO HYDRO NSWIT MESOM MESEV MESOL
 4 ME              M     M     E     R     S     L     R     1     P     R     1
@N MANAGEMENT  PLANT IRRIG FERTI RESID HARVS
 4 MA              R     R     R     N     M
@N OUTPUTS     FNAME OVVEW SUMRY FROPT GROUT CAOUT WAOUT NIOUT MIOUT DIOUT VBOSE CHOUT OPOUT FMOPT
 4 OU              N     Y     Y     1     Y     Y     Y     Y     N     N     Y     N     N     A

@  AUTOMATIC MANAGEMENT
@N PLANTING    PFRST PLAST PH2OL PH2OU PH2OD PSTMX PSTMN
 4 PL          86143 86157    40   100    30    40    10
@N IRRIGATION  IMDEP ITHRL ITHRU IROFF IMETH IRAMT IREFF
 4 IR             30    50   100 GS000 IR001    10     1
@N NITROGEN    NMDEP NMTHR NAMNT NCODE NAOFF
 4 NI             30    50    25 FE001 GS000
@N RESIDUES    RIPCN RTIME RIDEP
 4 RE            100     1    20
@N HARVEST     HFRST HLAST HPCNP HPCNR
 4 HA              0 95150   100     0



