*EXP.DETAILS: LUSK2101LT RAINFED LENTIL AT LUSKVILLA, QC

*GENERAL
@PEOPLE
AAFC
@ADDRESS
960 Carling OTTAWA
@SITE
LUSKVILLA, QC
@ PAREA  PRNO  PLEN  PLDR  PLSP  PLAY HAREA  HRNO  HLEN  HARM.........
     12    10     4   -99   -99   -99   -99   -99   -99   -99
@NOTES
Rainfed, two cultivars lentil

! kjb 11-25-2022 replaced solar radiation in WTH, with NASA power
! bad weather 2102 below is original weather  SR averaged 42.9% higher, 35-40 MJ at times
! NASA power also had higher Tmax temp, but I did not take those

*TREATMENTS                        -------------FACTOR LEVELS------------
@N R O C TNAME.................... CU FL SA IC MP MI MF MR MC MT ME MH SM
 1 0 0 0 Rainfed Maximim 2021       1  1  0  1  1  0  0  0  0  1  0  0  1
 2 0 0 0 Rainfed Impulse 2021       2  1  0  1  1  0  0  0  0  1  0  0  1

*CULTIVARS
@C CR INGENO CNAME
 1 LT CAND04 CDC Maximim
 2 LT CAND05 CDC Impulse

*FIELDS
@L ID_FIELD WSTA....  FLSA  FLOB  FLDT  FLDD  FLDS  FLST SLTX  SLDP  ID_SOIL    FLNAME
 1 LUSK0001 LUSK2101     0     0   -99     0     0    0S L      150  CAQC210001 -99
@L ...........XCRD ...........YCRD .....ELEV .............AREA .SLEN .FLWR .SLAS FLHST FHDUR
 1          -75.92           45.47       106                 0     0     0     0 FH101   -99

*SOIL ANALYSIS
@A SADAT  SMHB  SMPX  SMKE  SANAME
 1 21110 SA011   -99   -99  -99
@A  SABL  SADM  SAOC  SANI SAPHW SAPHB  SAPX  SAKE  SASC
 1    10   1.5   2.4   .21   6.4   -99   -99   -99   -99
 1    20   1.5   2.4   .23   6.2   -99   -99   -99   -99
 1    30   1.5   1.9   .16   6.5   -99   -99   -99   -99
 1    40   1.5    .9   .26   6.5   -99   -99   -99   -99
 1    50   1.3    .9   .41   6.7   -99   -99   -99   -99
 1    60   1.3    .8   .38   6.9   -99   -99   -99   -99
 1    70   1.3    .9   .46   6.6   -99   -99   -99   -99
 1    80   1.3    .8   .81   6.8   -99   -99   -99   -99
 1    90   1.4    .8   .75   6.7   -99   -99   -99   -99

*INITIAL CONDITIONS
@C   PCR ICDAT  ICRT  ICND  ICRN  ICRE  ICWD ICRES ICREN ICREP ICRIP ICRID ICNAME
 1    GB 06001   600     0     1     1   -99     0     1     0   100    15 -99
@C  ICBL  SH2O  SNH4  SNO3
 1    10    .2     6    11
 1    20   .31     8    13
 1    30   .33     9    11
 1    40   .34     5     4
 1    50   .35     3     5
 1    60   .36     7     4
 1    70   .38     4     5
 1    80   .38     4     5
 1    90   .38     4     4
 1   150   .38     4     4

*PLANTING DETAILS
@P PDATE EDATE  PPOP  PPOE  PLME  PLDS  PLRS  PLRD  PLDP  PLWT  PAGE  PENV  PLPH  SPRL                        PLNAME
 1 21122   -99   150   150     S     R    30     0     3   -99   -99   -99   -99     0                        -99

*FERTILIZERS (INORGANIC)
@F FDATE  FMCD  FACD  FDEP  FAMN  FAMP  FAMK  FAMC  FAMO  FOCD FERNAME
 1 21122 FE005 AP002     0     0     0     0     0     0   -99 -99

*RESIDUES AND ORGANIC FERTILIZER
@R RDATE  RCOD  RAMT  RESN  RESP  RESK  RINP  RDEP  RMET RENAME
 1 21110   -99   -99   -99   -99   -99   -99   -99   -99 -99

*CHEMICAL APPLICATIONS
@C CDATE CHCOD CHAMT  CHME CHDEP   CHT..CHNAME
 1 21110   -99   -99   -99   -99   -99  -99

*TILLAGE AND ROTATIONS
@T TDATE TIMPL  TDEP TNAME
 1 21144 TI037     2 -99
! 1 21102 TI038    15 -99
! 1 21102 TI007    20 -99

*ENVIRONMENT MODIFICATIONS
@E ODATE EDAY  ERAD  EMAX  EMIN  ERAIN ECO2  EDEW  EWIND ENVNAME  
 1 86344 A   0 A   0 A   0 A   0 A   0 A   0 A   0 A   0 

*HARVEST DETAILS
@H HDATE  HSTG  HCOM HSIZE   HPC  HBPC HNAME
 1 06001 GS000   -99   -99   -99   -99 

*SIMULATION CONTROLS
@N GENERAL     NYERS NREPS START SDATE RSEED SNAME.................... SMODEL
 1 GE              1     1     S 21110  2150 2021 SIMULATION
@N OPTIONS     WATER NITRO SYMBI PHOSP POTAS DISES  CHEM  TILL   CO2
 1 OP              Y     Y     Y     N     N     N     N     N     M
@N METHODS     WTHER INCON LIGHT EVAPO INFIL PHOTO HYDRO NSWIT MESOM MESEV MESOL
 1 ME              M     M     E     F     S     L     R     1     P     R     3
@N MANAGEMENT  PLANT IRRIG FERTI RESID HARVS
 1 MA              R     N     N     N     M
@N OUTPUTS     FNAME OVVEW SUMRY FROPT GROUT CAOUT WAOUT NIOUT MIOUT DIOUT VBOSE CHOUT OPOUT FMOPT
 1 OU              N     Y     Y     1     Y     Y     Y     Y     N     N     Y     N     N     A

@  AUTOMATIC MANAGEMENT
@N PLANTING    PFRST PLAST PH2OL PH2OU PH2OD PSTMX PSTMN
 1 PL          86143 86157    40   100    30    40    10
@N IRRIGATION  IMDEP ITHRL ITHRU IROFF IMETH IRAMT IREFF
 1 IR             30    50   100 GS000 IR001    10     1
@N NITROGEN    NMDEP NMTHR NAMNT NCODE NAOFF
 1 NI             30    50    25 FE001 GS000
@N RESIDUES    RIPCN RTIME RIDEP
 1 RE            100     1    20
@N HARVEST     HFRST HLAST HPCNP HPCNR
 1 HA              0 95150   100     0



