*EXP.DETAILS: MEKN2102LT IRRIGATION AT MOROCCO 2020-2022

*GENERAL
@PEOPLE
AAFC
@ADDRESS
960 Carling OTTAWA
@SITE
Montana, USA
@ PAREA  PRNO  PLEN  PLDR  PLSP  PLAY HAREA  HRNO  HLEN  HARM.........
     12   -99   -99   -99   -99   -99   -99   -99   -99   -99
@NOTES
Rainfed from Rhioui et al. 2023, Crop Protection


*TREATMENTS                        -------------FACTOR LEVELS------------
@N R O C TNAME.................... CU FL SA IC MP MI MF MR MC MT ME MH SM
 1 0 0 0 Meknes 2020-2021           2  1  0  1  1  1  0  0  0  0  0  0  1
 2 0 0 0 Meknes 2021-2022           2  1  0  2  2  2  0  0  0  0  0  0  2

*CULTIVARS
@C CR INGENO CNAME
 1 LT CAND04 CDC Maximim
 2 LT CAND02 CDC Glamis
 3 LT CAND05 CDC Impulse

*FIELDS
@L ID_FIELD WSTA....  FLSA  FLOB  FLDT  FLDD  FLDS  FLST SLTX  SLDP  ID_SOIL    FLNAME
 1 MEKN0001 MEKN2003     0     0   -99     0     0    0S SIL    150  CF_MEKN001 -99
 2 MEKN0002 MEKN2003     0     0   -99     0     0    0S SIL    150  CF_MEKN002 -99
@L ...........XCRD ...........YCRD .....ELEV .............AREA .SLEN .FLWR .SLAS FLHST FHDUR
 1            5.48           33.84        90                 0     0     0     0 FH101   -99
 2            5.48           33.84        90                 0     0     0     0 FH101   -99

*SOIL ANALYSIS
@A SADAT  SMHB  SMPX  SMKE  SANAME
 1 20001 SA011   -99   -99  -99
@A  SABL  SADM  SAOC  SANI SAPHW SAPHB  SAPX  SAKE  SASC
 1    10   1.1   1.7   -99   7.3   -99   -99   -99   -99

*INITIAL CONDITIONS
@C   PCR ICDAT  ICRT  ICND  ICRN  ICRE  ICWD ICRES ICREN ICREP ICRIP ICRID ICNAME
 1    WH 20001     0     0     1     1   -99     0     0     0   100    15 -99
@C  ICBL  SH2O  SNH4  SNO3
 1    30    .4    .1   1.4
 1    60    .4    .2   1.3
 1   100    .4    .2   1.1
 1   150   .39    .2   1.1
@C   PCR ICDAT  ICRT  ICND  ICRN  ICRE  ICWD ICRES ICREN ICREP ICRIP ICRID ICNAME
 2    WH 21001     0     0     1     1   -99     0     0     0   100    15 -99
@C  ICBL  SH2O  SNH4  SNO3
 2    30    .4    .1   1.4
 2    60    .4    .2   1.3
 2   100    .4    .2   1.1
 2   150   .39    .2   1.1

*PLANTING DETAILS
@P PDATE EDATE  PPOP  PPOE  PLME  PLDS  PLRS  PLRD  PLDP  PLWT  PAGE  PENV  PLPH  SPRL                        PLNAME
 1 20350   -99   100   -99     S     R    23   -99     3   -99   -99   -99   -99     0                        -99
 2 21350   -99   100   -99     S     R    23   -99     3   -99   -99   -99   -99     0                        -99

*IRRIGATION AND WATER MANAGEMENT
@I  EFIR  IDEP  ITHR  IEPT  IOFF  IAME  IAMT IRNAME
 1     1   -99   -99   -99   -99   -99   -99 -99
@I IDATE  IROP IRVAL
 1 20350 IR005    20
 1 21010 IR005    20
 1 21025 IR005    20
 1 21040 IR005    20
 1 21055 IR005    20
@I  EFIR  IDEP  ITHR  IEPT  IOFF  IAME  IAMT IRNAME
 2     1   -99   -99   -99   -99   -99   -99 -99
@I IDATE  IROP IRVAL
 2 21350 IR005    20
 2 22010 IR005    20
 2 22025 IR005    20
 2 22040 IR005    20
 2 22055 IR005    20

*FERTILIZERS (INORGANIC)
@F FDATE  FMCD  FACD  FDEP  FAMN  FAMP  FAMK  FAMC  FAMO  FOCD FERNAME
 1 06144 FE005 AP002     0     0     0     0     0     0   -99 -99

*RESIDUES AND ORGANIC FERTILIZER
@R RDATE  RCOD  RAMT  RESN  RESP  RESK  RINP  RDEP  RMET RENAME
 1 06001   -99   -99   -99   -99   -99   -99   -99   -99 -99

*CHEMICAL APPLICATIONS
@C CDATE CHCOD CHAMT  CHME CHDEP   CHT..CHNAME
 1 06001   -99   -99   -99   -99   -99  -99

*TILLAGE AND ROTATIONS
@T TDATE TIMPL  TDEP TNAME
 1 06001   -99   -99 -99

*ENVIRONMENT MODIFICATIONS
@E ODATE EDAY  ERAD  EMAX  EMIN  ERAIN ECO2  EDEW  EWIND ENVNAME  
 1 86344 A   0 A   0 A   0 A   0 A   0 A   0 A   0 A   0 

*HARVEST DETAILS
@H HDATE  HSTG  HCOM HSIZE   HPC  HBPC HNAME
 1 06001 GS000   -99   -99   -99   -99 

*SIMULATION CONTROLS
@N GENERAL     NYERS NREPS START SDATE RSEED SNAME.................... SMODEL
 1 GE              1     1     S 20001  2150 2019 SIMULATION
@N OPTIONS     WATER NITRO SYMBI PHOSP POTAS DISES  CHEM  TILL   CO2
 1 OP              Y     Y     Y     N     N     N     N     N     M
@N METHODS     WTHER INCON LIGHT EVAPO INFIL PHOTO HYDRO NSWIT MESOM MESEV MESOL
 1 ME              M     M     E     F     S     L     R     1     P     R     2
@N MANAGEMENT  PLANT IRRIG FERTI RESID HARVS
 1 MA              R     R     R     N     M
@N OUTPUTS     FNAME OVVEW SUMRY FROPT GROUT CAOUT WAOUT NIOUT MIOUT DIOUT VBOSE CHOUT OPOUT FMOPT
 1 OU              N     Y     Y     1     Y     Y     Y     Y     N     N     Y     N     N     A

@  AUTOMATIC MANAGEMENT
@N PLANTING    PFRST PLAST PH2OL PH2OU PH2OD PSTMX PSTMN
 1 PL          86143 86157    40   100    30    40    10
@N IRRIGATION  IMDEP ITHRL ITHRU IROFF IMETH IRAMT IREFF
 1 IR             30    50   100 GS000 IR001    10     1
@N NITROGEN    NMDEP NMTHR NAMNT NCODE NAOFF
 1 NI             30    50    25 FE001 GS000
@N RESIDUES    RIPCN RTIME RIDEP
 1 RE            100     1    20
@N HARVEST     HFRST HLAST HPCNP HPCNR
 1 HA              0 95150   100     0

@N GENERAL     NYERS NREPS START SDATE RSEED SNAME.................... SMODEL
 2 GE              1     1     S 21001  2150 2007 SIMULATION
@N OPTIONS     WATER NITRO SYMBI PHOSP POTAS DISES  CHEM  TILL   CO2
 2 OP              Y     Y     Y     N     N     N     N     N     M
@N METHODS     WTHER INCON LIGHT EVAPO INFIL PHOTO HYDRO NSWIT MESOM MESEV MESOL
 2 ME              M     M     E     F     S     L     R     1     P     R     2
@N MANAGEMENT  PLANT IRRIG FERTI RESID HARVS
 2 MA              R     R     R     N     M
@N OUTPUTS     FNAME OVVEW SUMRY FROPT GROUT CAOUT WAOUT NIOUT MIOUT DIOUT VBOSE CHOUT OPOUT FMOPT
 2 OU              N     Y     Y     1     Y     Y     Y     Y     N     N     Y     N     N     A

@  AUTOMATIC MANAGEMENT
@N PLANTING    PFRST PLAST PH2OL PH2OU PH2OD PSTMX PSTMN
 2 PL          86143 86157    40   100    30    40    10
@N IRRIGATION  IMDEP ITHRL ITHRU IROFF IMETH IRAMT IREFF
 2 IR             30    50   100 GS000 IR001    10     1
@N NITROGEN    NMDEP NMTHR NAMNT NCODE NAOFF
 2 NI             30    50    25 FE001 GS000
@N RESIDUES    RIPCN RTIME RIDEP
 2 RE            100     1    20
@N HARVEST     HFRST HLAST HPCNP HPCNR
 2 HA              0 95150   100     0



