*EXP.DETAILS: SWIF0607LT RAINFED AND IRRIGATED LENTIL AT SWIFT CURRENT

*GENERAL
@PEOPLE
AAFC
@ADDRESS
960 Carling OTTAWA
@SITE
Swift Current Canada
@ PAREA  PRNO  PLEN  PLDR  PLSP  PLAY HAREA  HRNO  HLEN  HARM.........
     12   -99   -99   -99   -99   -99   -99   -99   -99   -99
@NOTES
Rainfed and irrigated


*TREATMENTS                        -------------FACTOR LEVELS------------
@N R O C TNAME.................... CU FL SA IC MP MI MF MR MC MT ME MH SM
 1 0 0 0 Swif Curr 2000             1  1  0  2  2  0  0  0  0  0  0  0  2
 2 0 0 0 Swif Curr 2001             1  1  0  3  3  0  0  0  0  0  0  0  3
 3 0 0 0 Stevard V 2000             1  2  0  4  4  0  0  0  0  0  0  0  4
 4 0 0 0 Stevard V 2001             1  2  0  5  5  0  0  0  0  0  0  0  5
 5 0 0 0 Stevard V 2002             1  2  0  6  6  0  0  0  0  0  0  0  6
 6 0 0 0 Swif Curr 2000             1  1  0  2  2  0  2  0  0  0  0  0  2
 7 0 0 0 Swif Curr 2001             1  1  0  3  3  0  3  0  0  0  0  0  3
 8 0 0 0 Stevard V 2000             1  2  0  4  4  0  4  0  0  0  0  0  4
 9 0 0 0 Stevard V 2001             1  2  0  5  5  0  5  0  0  0  0  0  5
10 0 0 0 Stevard V 2002             1  2  0  6  6  0  6  0  0  0  0  0  6


*CULTIVARS
@C CR INGENO CNAME
 1 LT CAND02 CDC Glamis
 2 LT CAND03 Laird

*FIELDS
@L ID_FIELD WSTA....  FLSA  FLOB  FLDT  FLDD  FLDS  FLST SLTX  SLDP  ID_SOIL    FLNAME
 1 SWCO0001 SWIF6752     0     0   -99     0     0    0S SIL    150  CASC900051 -99
 2 SCSV0001 SCSV0003     0     0   -99     0     0    0S SIL    150  CASK000258 -99
@L ...........XCRD ...........YCRD .....ELEV .............AREA .SLEN .FLWR .SLAS FLHST FHDUR
 1          -107.3           50.28       817                 0     0     0     0 FH101   -99
 2          -107.3           50.28       727                 0     0     0     0 FH101   -99

*SOIL ANALYSIS
@A SADAT  SMHB  SMPX  SMKE  SANAME
 1 86344 SA011   -99   -99  -99
@A  SABL  SADM  SAOC  SANI SAPHW SAPHB  SAPX  SAKE  SASC
 1    10   1.1   1.7   -99   7.3   -99   -99   -99   -99

*INITIAL CONDITIONS
@C   PCR ICDAT  ICRT  ICND  ICRN  ICRE  ICWD ICRES ICREN ICREP ICRIP ICRID ICNAME
 2    WH 00001   900     0     1     1   -99   900   1.0     0    20    15 -99
@C  ICBL  SH2O  SNH4  SNO3
 2    10   .17     1  10.6
 2    20   .17     1   7.4
 2    30   .17    .2   1.3
 2    40   .18    .2   1.1
 2    50   .19    .2   1.1
 2    60   .20    .2   1.1
 2    80   .21    .2   1.1
 2   100   .22    .2   1.1
 2   150   .22    .2   1.1
@C   PCR ICDAT  ICRT  ICND  ICRN  ICRE  ICWD ICRES ICREN ICREP ICRIP ICRID ICNAME
 3    WH 01001   900     0     1     1   -99   900   1.0     0    20    15 -99
@C  ICBL  SH2O  SNH4  SNO3
 3    10   .16     1  10.6
 3    20   .16     1   7.4
 3    30   .16    .2   1.3
 3    40   .17    .2   1.1
 3    50   .19    .2   1.1
 3    60   .20    .2   1.1
 3    80   .20    .2   1.1
 3   100   .22    .2   1.1
 3   150   .22    .2   1.1
@C   PCR ICDAT  ICRT  ICND  ICRN  ICRE  ICWD ICRES ICREN ICREP ICRIP ICRID ICNAME
 4    WH 00001   900     0     1     1   -99   900   1.0     0    20    15 -99
@C  ICBL  SH2O  SNH4  SNO3
 4    10   .40     1  10.6
 4    20   .40     1   7.4
 4    30   .40   .2   1.3
 4    40   .40    .2   1.1
 4    50   .42    .2   1.1
 4    60   .45    .2   1.1
 4    80   .45    .2   1.1
 4   100   .45    .2   1.1
 4   150   .45    .2   1.1
@C   PCR ICDAT  ICRT  ICND  ICRN  ICRE  ICWD ICRES ICREN ICREP ICRIP ICRID ICNAME
 5    WH 01001   900     0     1     1   -99   900   1.0     0    20    15 -99
@C  ICBL  SH2O  SNH4  SNO3
 5    10   .30     1  10.6
 5    20   .30     1   7.4
 5    30   .30    .2   1.3
 5    40   .30    .2   1.1
 5    50   .36    .2   1.1
 5    60   .35    .2   1.1
 5    80   .45    .2   1.1
 5   100   .45    .2   1.1
 5   150   .45    .2   1.1
@C   PCR ICDAT  ICRT  ICND  ICRN  ICRE  ICWD ICRES ICREN ICREP ICRIP ICRID ICNAME
 6    WH 02001   900     0     1     1   -99   900   1.0     0    20    15 -99
@C  ICBL  SH2O  SNH4  SNO3
 6    10   .28     1  10.6
 6    20   .28     1   7.4
 6    30   .29    .2   1.3
 6    40   .29    .2   1.1
 6    50   .30    .2   1.1
 6    60   .30    .2   1.1
 6    80   .33    .2   1.1
 6   100   .33    .2   1.1
 6   150   .33    .2   1.1
*PLANTING DETAILS
@P PDATE EDATE  PPOP  PPOE  PLME  PLDS  PLRS  PLRD  PLDP  PLWT  PAGE  PENV  PLPH  SPRL                        PLNAME
 2 00124   -99   120   -99     S     R    40   -99   3.0   -99   -99   -99   -99     0                        -99
 3 01116   -99   120   -99     S     R    40   -99   3.0   -99   -99   -99   -99     0                        -99
 4 00125   -99   120   -99     S     R    40   -99   3.0   -99   -99   -99   -99     0                        -99
 5 01120   -99   120   -99     S     R    40   -99   3.0   -99   -99   -99   -99     0                        -99
 6 02137   -99   120   -99     S     R    40   -99   3.0   -99   -99   -99   -99     0                        -99

*IRRIGATION AND WATER MANAGEMENT
@I  EFIR  IDEP  ITHR  IEPT  IOFF  IAME  IAMT IRNAME
 1     1   -99   -99   -99   -99   -99   -99 -99
@I IDATE  IROP IRVAL
 1 06175 IR005  46.4

@I  EFIR  IDEP  ITHR  IEPT  IOFF  IAME  IAMT IRNAME
 2     1   -99   -99   -99   -99   -99   -99 -99
@I IDATE  IROP IRVAL
 2 07175 IR005    46

*FERTILIZERS (INORGANIC)
@F FDATE  FMCD  FACD  FDEP  FAMN  FAMP  FAMK  FAMC  FAMO  FOCD FERNAME
 2 00124 FE005 AP002     8    15     0     0     0     0   -99 -99
 3 01116 FE005 AP002     8    15     0     0     0     0   -99 -99
 4 00125 FE005 AP002     8    15     0     0     0     0   -99 -99
 5 01120 FE005 AP002     8    15     0     0     0     0   -99 -99
 6 02137 FE005 AP002     8    15     0     0     0     0   -99 -99

*RESIDUES AND ORGANIC FERTILIZER
@R RDATE  RCOD  RAMT  RESN  RESP  RESK  RINP  RDEP  RMET RENAME
 1 06001   -99   -99   -99   -99   -99   -99   -99   -99 -99

*CHEMICAL APPLICATIONS
@C CDATE CHCOD CHAMT  CHME CHDEP   CHT..CHNAME
 1 06001   -99   -99   -99   -99   -99  -99

*TILLAGE AND ROTATIONS
@T TDATE TIMPL  TDEP TNAME
 1 06001   -99   -99 -99

*ENVIRONMENT MODIFICATIONS
@E ODATE EDAY  ERAD  EMAX  EMIN  ERAIN ECO2  EDEW  EWIND ENVNAME  
 1 86344 A   0 A   0 A   0 A   0 A 0.0 A   0 A   0 A   0 

*HARVEST DETAILS
@H HDATE  HSTG  HCOM HSIZE   HPC  HBPC HNAME
 1 06001 GS000   -99   -99   -99   -99 

*SIMULATION CONTROLS
@N GENERAL     NYERS NREPS START SDATE RSEED SNAME.................... SMODEL
 2 GE              1     1     S 00100  2150 2000 SIMULATION
@N OPTIONS     WATER NITRO SYMBI PHOSP POTAS DISES  CHEM  TILL   CO2
 2 OP              Y     Y     Y     N     N     N     N     N     M
@N METHODS     WTHER INCON LIGHT EVAPO INFIL PHOTO HYDRO NSWIT MESOM MESEV MESOL
 2 ME              M     M     E     R     S     L     R     1     P     R     1
@N MANAGEMENT  PLANT IRRIG FERTI RESID HARVS
 2 MA              R     R     R     N     M
@N OUTPUTS     FNAME OVVEW SUMRY FROPT GROUT CAOUT WAOUT NIOUT MIOUT DIOUT VBOSE CHOUT OPOUT FMOPT
 2 OU              N     Y     Y     1     Y     Y     Y     Y     N     N     Y     N     N     A
@  AUTOMATIC MANAGEMENT
@N PLANTING    PFRST PLAST PH2OL PH2OU PH2OD PSTMX PSTMN
 2 PL          86143 86157    40   100    30    40    10
@N IRRIGATION  IMDEP ITHRL ITHRU IROFF IMETH IRAMT IREFF
 2 IR             30    50   100 GS000 IR001    10     1
@N NITROGEN    NMDEP NMTHR NAMNT NCODE NAOFF
 2 NI             30    50    25 FE001 GS000
@N RESIDUES    RIPCN RTIME RIDEP
 2 RE            100     1    20
@N HARVEST     HFRST HLAST HPCNP HPCNR
 2 HA              0 95150   100     0

@N GENERAL     NYERS NREPS START SDATE RSEED SNAME.................... SMODEL
 3 GE              1     1     S 01100  2150 2000 SIMULATION
@N OPTIONS     WATER NITRO SYMBI PHOSP POTAS DISES  CHEM  TILL   CO2
 3 OP              Y     Y     Y     N     N     N     N     N     M
@N METHODS     WTHER INCON LIGHT EVAPO INFIL PHOTO HYDRO NSWIT MESOM MESEV MESOL
 3 ME              M     M     E     R     S     L     R     1     P     R     1
@N MANAGEMENT  PLANT IRRIG FERTI RESID HARVS
 3 MA              R     R     R     N     M
@N OUTPUTS     FNAME OVVEW SUMRY FROPT GROUT CAOUT WAOUT NIOUT MIOUT DIOUT VBOSE CHOUT OPOUT FMOPT
 3 OU              N     Y     Y     1     Y     Y     Y     Y     N     N     Y     N     N     A
@  AUTOMATIC MANAGEMENT
@N PLANTING    PFRST PLAST PH2OL PH2OU PH2OD PSTMX PSTMN
 3 PL          86143 86157    40   100    30    40    10
@N IRRIGATION  IMDEP ITHRL ITHRU IROFF IMETH IRAMT IREFF
 3 IR             30    50   100 GS000 IR001    10     1
@N NITROGEN    NMDEP NMTHR NAMNT NCODE NAOFF
 3 NI             30    50    25 FE001 GS000
@N RESIDUES    RIPCN RTIME RIDEP
 3 RE            100     1    20
@N HARVEST     HFRST HLAST HPCNP HPCNR
 3 HA              0 95150   100     0

@N GENERAL     NYERS NREPS START SDATE RSEED SNAME.................... SMODEL
 4 GE              1     1     S 00100  2150 2000 SIMULATION
@N OPTIONS     WATER NITRO SYMBI PHOSP POTAS DISES  CHEM  TILL   CO2
 4 OP              Y     Y     Y     N     N     N     N     N     M
@N METHODS     WTHER INCON LIGHT EVAPO INFIL PHOTO HYDRO NSWIT MESOM MESEV MESOL
 4 ME              M     M     E     R     S     L     R     1     P     R     1
@N MANAGEMENT  PLANT IRRIG FERTI RESID HARVS
 4 MA              R     R     R     N     M
@N OUTPUTS     FNAME OVVEW SUMRY FROPT GROUT CAOUT WAOUT NIOUT MIOUT DIOUT VBOSE CHOUT OPOUT FMOPT
 4 OU              N     Y     Y     1     Y     Y     Y     Y     N     N     Y     N     N     A
@  AUTOMATIC MANAGEMENT
@N PLANTING    PFRST PLAST PH2OL PH2OU PH2OD PSTMX PSTMN
 4 PL          86143 86157    40   100    30    40    10
@N IRRIGATION  IMDEP ITHRL ITHRU IROFF IMETH IRAMT IREFF
 4 IR             30    50   100 GS000 IR001    10     1
@N NITROGEN    NMDEP NMTHR NAMNT NCODE NAOFF
 4 NI             30    50    25 FE001 GS000
@N RESIDUES    RIPCN RTIME RIDEP
 4 RE            100     1    20
@N HARVEST     HFRST HLAST HPCNP HPCNR
 4 HA              0 95150   100     0

@N GENERAL     NYERS NREPS START SDATE RSEED SNAME.................... SMODEL
 5 GE              1     1     S 01100  2150 2000 SIMULATION
@N OPTIONS     WATER NITRO SYMBI PHOSP POTAS DISES  CHEM  TILL   CO2
 5 OP              Y     Y     Y     N     N     N     N     N     M
@N METHODS     WTHER INCON LIGHT EVAPO INFIL PHOTO HYDRO NSWIT MESOM MESEV MESOL
 5 ME              M     M     E     R     S     L     R     1     P     R     1
@N MANAGEMENT  PLANT IRRIG FERTI RESID HARVS
 5 MA              R     R     R     N     M
@N OUTPUTS     FNAME OVVEW SUMRY FROPT GROUT CAOUT WAOUT NIOUT MIOUT DIOUT VBOSE CHOUT OPOUT FMOPT
 5 OU              N     Y     Y     1     Y     Y     Y     Y     N     N     Y     N     N     A
@  AUTOMATIC MANAGEMENT
@N PLANTING    PFRST PLAST PH2OL PH2OU PH2OD PSTMX PSTMN
 5 PL          86143 86157    40   100    30    40    10
@N IRRIGATION  IMDEP ITHRL ITHRU IROFF IMETH IRAMT IREFF
 5 IR             30    50   100 GS000 IR001    10     1
@N NITROGEN    NMDEP NMTHR NAMNT NCODE NAOFF
 5 NI             30    50    25 FE001 GS000
@N RESIDUES    RIPCN RTIME RIDEP
 5 RE            100     1    20
@N HARVEST     HFRST HLAST HPCNP HPCNR
 5 HA              0 95150   100     0

@N GENERAL     NYERS NREPS START SDATE RSEED SNAME.................... SMODEL
 6 GE              1     1     S 02100  2150 2000 SIMULATION
@N OPTIONS     WATER NITRO SYMBI PHOSP POTAS DISES  CHEM  TILL   CO2
 6 OP              Y     Y     Y     N     N     N     N     N     M
@N METHODS     WTHER INCON LIGHT EVAPO INFIL PHOTO HYDRO NSWIT MESOM MESEV MESOL
 6 ME              M     M     E     R     S     L     R     1     P     R     1
@N MANAGEMENT  PLANT IRRIG FERTI RESID HARVS
 6 MA              R     R     R     N     M
@N OUTPUTS     FNAME OVVEW SUMRY FROPT GROUT CAOUT WAOUT NIOUT MIOUT DIOUT VBOSE CHOUT OPOUT FMOPT
 6 OU              N     Y     Y     1     Y     Y     Y     Y     N     N     Y     N     N     A
@  AUTOMATIC MANAGEMENT
@N PLANTING    PFRST PLAST PH2OL PH2OU PH2OD PSTMX PSTMN
 6 PL          86143 86157    40   100    30    40    10
@N IRRIGATION  IMDEP ITHRL ITHRU IROFF IMETH IRAMT IREFF
 6 IR             30    50   100 GS000 IR001    10     1
@N NITROGEN    NMDEP NMTHR NAMNT NCODE NAOFF
 6 NI             30    50    25 FE001 GS000
@N RESIDUES    RIPCN RTIME RIDEP
 6 RE            100     1    20
@N HARVEST     HFRST HLAST HPCNP HPCNR
 6 HA              0 95150   100     0

