*EXP.DETAILS: SWIF2101LT RAINFED LENTIL AT SWIFT CURRENT WITH THREE SEEDING DATES

*GENERAL
@PEOPLE
AAFC
@ADDRESS
960 Carling OTTAWA
@SITE
Swift Current Canada
@ PAREA  PRNO  PLEN  PLDR  PLSP  PLAY HAREA  HRNO  HLEN  HARM.........
     12   -99   -99   -99   -99   -99   -99   -99   -99   -99
@NOTES
Rainfed and irrigated


*TREATMENTS                        -------------FACTOR LEVELS------------
@N R O C TNAME.................... CU FL SA IC MP MI MF MR MC MT ME MH SM
 1 0 0 0 Eearly Maxim 2021          1  1  0  1  1  0  1  0  0  0  0  0  1
 2 0 0 0 Normal Maxim 2021          1  1  0  1  2  0  2  0  0  0  0  0  1
 3 0 0 0 Late   Maxim 2021          1  1  0  1  3  0  3  0  0  0  0  0  1
 4 0 0 0 Eearly Lima  2021          2  1  0  1  4  0  1  0  0  0  0  0  1
 5 0 0 0 Normal Lima  2021          2  1  0  1  5  0  2  0  0  0  0  0  1
 6 0 0 0 Late   Lima  2021          2  1  0  1  6  0  3  0  0  0  0  0  1
 7 0 0 0 Impuls 2021                3  1  0  1  7  0  4  0  0  0  0  0  1

*CULTIVARS
@C CR INGENO CNAME
 1 LT CAND04 CDC Maxim
 2 LT CAND06 CDC Lima
 3 LT CAND05 CDC Impulse

*FIELDS
@L ID_FIELD WSTA....  FLSA  FLOB  FLDT  FLDD  FLDS  FLST SLTX  SLDP  ID_SOIL    FLNAME
 1 SWCO0001 SWIF2101     0     0   -99     0     0    0S SIL    150  CASC900010 -99
@L ...........XCRD ...........YCRD .....ELEV .............AREA .SLEN .FLWR .SLAS FLHST FHDUR
 1          -107.3           50.28        90                 0     0     0     0 FH101   -99

*SOIL ANALYSIS
@A SADAT  SMHB  SMPX  SMKE  SANAME
 1 21100 SA011   -99   -99  -99
@A  SABL  SADM  SAOC  SANI SAPHW SAPHB  SAPX  SAKE  SASC
 1    10   1.1   1.7   -99   7.3   -99   -99   -99   -99

*INITIAL CONDITIONS
@C   PCR ICDAT  ICRT  ICND  ICRN  ICRE  ICWD ICRES ICREN ICREP ICRIP ICRID ICNAME
 1    WH 21001   900     0     1     1   -99  4000     0     0    20    15 -99
@C  ICBL  SH2O  SNH4  SNO3
 1    10   .26     1  10.6
 1    20   .26     1   7.4
 1    30    .3    .2   1.3
 1    40    .3    .2   1.1
 1    50   .29    .2   1.1
 1    60   .29    .2   1.1
 1    80   .31    .2   1.1
 1   100   .32    .2   1.1
 1   150   .32    .2   1.1

*PLANTING DETAILS
@P PDATE EDATE  PPOP  PPOE  PLME  PLDS  PLRS  PLRD  PLDP  PLWT  PAGE  PENV  PLPH  SPRL                        PLNAME
 1 21117   -99   150   150     S     R    25   -99     3   -99   -99   -99   -99     0                        -99
 2 21130   -99   150   150     S     R    25   -99     3   -99   -99   -99   -99     0                        -99
 3 21139   -99   150   150     S     R    25   -99     3   -99   -99   -99   -99     0                        -99
 4 21117   -99   150   150     S     R    25   -99     3   -99   -99   -99   -99     0                        -99
 5 21130   -99   150   150     S     R    25   -99     3   -99   -99   -99   -99     0                        -99
 6 21139   -99   150   150     S     R    25   -99     3   -99   -99   -99   -99     0                        -99
 7 21123   -99   150   150     S     R    25   -99     3   -99   -99   -99   -99     0                        -99

*FERTILIZERS (INORGANIC)
@F FDATE  FMCD  FACD  FDEP  FAMN  FAMP  FAMK  FAMC  FAMO  FOCD FERNAME
 1 21117 FE005 AP002     0     4     0     0     0     0   -99 -99
 2 21130 FE005 AP002     0     4     0     0     0     0   -99 -99
 3 21139 FE005 AP002     0     4     0     0     0     0   -99 -99
 4 21117 FE005 AP002     0     4     0     0     0     0   -99 -99

*RESIDUES AND ORGANIC FERTILIZER
@R RDATE  RCOD  RAMT  RESN  RESP  RESK  RINP  RDEP  RMET RENAME
 1 21001   -99   -99   -99   -99   -99   -99   -99   -99 -99

*CHEMICAL APPLICATIONS
@C CDATE CHCOD CHAMT  CHME CHDEP   CHT..CHNAME
 1 21001   -99   -99   -99   -99   -99  -99

*TILLAGE AND ROTATIONS
@T TDATE TIMPL  TDEP TNAME
 1 21001   -99   -99 -99

*HARVEST DETAILS
@H HDATE  HSTG  HCOM HSIZE   HPC  HBPC HNAME
 1 21001 GS000   -99   -99   -99   -99 

*SIMULATION CONTROLS
@N GENERAL     NYERS NREPS START SDATE RSEED SNAME.................... SMODEL
 1 GE              1     1     S 21001  2150 2006 SIMULATION
@N OPTIONS     WATER NITRO SYMBI PHOSP POTAS DISES  CHEM  TILL   CO2
 1 OP              Y     Y     Y     N     N     N     N     N     M
@N METHODS     WTHER INCON LIGHT EVAPO INFIL PHOTO HYDRO NSWIT MESOM MESEV MESOL
 1 ME              M     M     E     R     S     L     R     1     P     R     1
@N MANAGEMENT  PLANT IRRIG FERTI RESID HARVS
 1 MA              R     R     R     Y     M
@N OUTPUTS     FNAME OVVEW SUMRY FROPT GROUT CAOUT WAOUT NIOUT MIOUT DIOUT VBOSE CHOUT OPOUT FMOPT
 1 OU              N     Y     Y     1     Y     Y     Y     Y     N     N     Y     N     N     A

@  AUTOMATIC MANAGEMENT
@N PLANTING    PFRST PLAST PH2OL PH2OU PH2OD PSTMX PSTMN
 1 PL          86143 86157    40   100    30    40    10
@N IRRIGATION  IMDEP ITHRL ITHRU IROFF IMETH IRAMT IREFF
 1 IR             30    50   100 GS000 IR001    10     1
@N NITROGEN    NMDEP NMTHR NAMNT NCODE NAOFF
 1 NI             30    50    25 FE001 GS000
@N RESIDUES    RIPCN RTIME RIDEP
 1 RE            100     1    20
@N HARVEST     HFRST HLAST HPCNP HPCNR
 1 HA              0 95150   100     0



