*SOILS : Maricopa Agricultural Center, Maricopa, Phoenix, Arizona
! DSSAT v4.7; 03/02/2021
!
!======================================================================================================

*AZMA020002  FLDAVG      SACLL  210. Casa Grande sandy loam, 2002
@SITE....... COUNTRY....      LAT     LONG SCSFAMILY.........................................
 MA-Maricopa AZ Location   33.050 -112.000 FINE-LOAMY, MIXED, HYPERTHERMIC TYPIC NATRARGIDS
@ SCOM  SALB  SLU1  SLDR  SLRO  SLNF  SLPF  SMHB  SMPX  SMKE
 -99    0.20  12.0  0.20   65.  1.00  0.83 SA001 SA001 SA001
@  SLB  SLMH  SLLL  SDUL  SSAT  SRGF  SSKS  SBDM  SLOC  SLCL  SLSI  SLCF  SLNI  SLHW  SLHB  SCEC  SADC
    5.    AP 0.091 0.197 0.407 1.000 1.500  1.49  0.58  21.0  10.8   -99   -99   8.3   -99  12.0   -99
   15.    AP 0.091 0.197 0.407 1.000 1.500  1.49  0.58  21.0  10.8   -99   -99   8.3   -99  12.0   -99
   30.    AP 0.091 0.197 0.407 1.000 1.500  1.49  0.58  21.0  10.8   -99   -99   8.3   -99  12.0   -99
   45.    C1 0.098 0.210 0.435 0.600 2.000  1.40  0.17  22.6  10.8   -99   -99   8.3   -99  12.0   -99
   60.    C1 0.103 0.230 0.431 0.500 1.900  1.42  0.17  24.1  10.7   -99   -99   8.3   -99  12.0   -99
   90.    C1 0.110 0.240 0.400 0.300 1.200  1.53  0.17  24.0  12.5   -99   -99   8.3   -99  12.0   -99
  120.    C1 0.100 0.250 0.382 0.250 1.000  1.58  0.17  21.4  11.8   -99   -99   8.3   -99  12.0   -99
  150.    C2 0.081 0.220 0.378 0.200 1.700  1.58  0.17  16.9   9.2   -99   -99   8.3   -99  12.0   -99
  180.    C2 0.088 0.184 0.380 0.000 1.300  1.58  0.17  19.2   9.4   -99   -99   8.3   -99  12.0   -99
  210.    C2 0.088 0.205 0.380 0.000 1.300  1.58  0.17  19.2   9.4   -99   -99   8.3   -99  12.0   -99

*AZMA030001  FLDAVG      SACLL  210. Casa Grande sandy loam, 2003
@SITE....... COUNTRY....      LAT     LONG SCSFAMILY.........................................
 MA-Maricopa AZ Location   33.050 -112.000 FINE-LOAMY, MIXED, HYPERTHERMIC TYPIC NATRARGIDS
@ SCOM  SALB  SLU1  SLDR  SLRO  SLNF  SLPF  SMHB  SMPX  SMKE
 -99    0.20  12.0  0.20   65.  1.00  0.90 SA001 SA001 SA001
@  SLB  SLMH  SLLL  SDUL  SSAT  SRGF  SSKS  SBDM  SLOC  SLCL  SLSI  SLCF  SLNI  SLHW  SLHB  SCEC  SADC
    5.    AP 0.091 0.197 0.407 1.000 1.500  1.49  0.58  21.0  10.8   -99   -99   8.3   -99  12.0   -99
   15.    AP 0.091 0.197 0.407 1.000 1.500  1.49  0.58  21.0  10.8   -99   -99   8.3   -99  12.0   -99
   30.    AP 0.091 0.197 0.407 1.000 1.500  1.49  0.58  21.0  10.8   -99   -99   8.3   -99  12.0   -99
   45.    C1 0.098 0.210 0.435 0.600 2.000  1.40  0.17  22.6  10.8   -99   -99   8.3   -99  12.0   -99
   60.    C1 0.103 0.230 0.431 0.500 1.900  1.42  0.17  24.1  10.7   -99   -99   8.3   -99  12.0   -99
   90.    C1 0.110 0.240 0.400 0.300 1.200  1.53  0.17  24.0  12.5   -99   -99   8.3   -99  12.0   -99
  120.    C1 0.100 0.250 0.382 0.250 1.000  1.58  0.17  21.4  11.8   -99   -99   8.3   -99  12.0   -99
  150.    C2 0.081 0.220 0.378 0.200 1.700  1.58  0.17  16.9   9.2   -99   -99   8.3   -99  12.0   -99
  180.    C2 0.088 0.184 0.380 0.000 1.300  1.58  0.17  19.2   9.4   -99   -99   8.3   -99  12.0   -99
  210.    C2 0.088 0.205 0.380 0.000 1.300  1.58  0.17  19.2   9.4   -99   -99   8.3   -99  12.0   -99

*AZMA140001  FLDAVG      SALO   210. Casa Grande Silty Clay Loam
@SITE....... COUNTRY....      LAT     LONG SCSFAMILY.........................................
 MA-Maricopa AZ Location   33.050 -112.000 FINE-LOAMY, MIXED, HYPERTHERMIC TYPIC NATRARGIDS
@ SCOM  SALB  SLU1  SLDR  SLRO  SLNF  SLPF  SMHB  SMPX  SMKE
 -99    0.20  12.0  0.20   80.  1.00  1.00 SA001 SA001 SA001
@  SLB  SLMH  SLLL  SDUL  SSAT  SRGF  SSKS  SBDM  SLOC  SLCL  SLSI  SLCF  SLNI  SLHW  SLHB  SCEC  SADC
    5.    AP 0.109 0.241 0.410 0.542 1.838  1.39  0.60  15.8  20.9   -99   -99   8.3   -99  12.0   -99
   15.    AP 0.109 0.241 0.410 0.496 1.838  1.39  0.60  15.8  20.9   -99   -99   8.3   -99  12.0   -99
   30.    AP 0.109 0.241 0.410 0.428 1.838  1.39  0.60  15.8  20.9   -99   -99   8.3   -99  12.0   -99
   45.    C1 0.106 0.228 0.389 0.359 1.510  1.48  0.55  15.1  20.6   -99   -99   8.3   -99  12.0   -99
   60.    C1 0.099 0.202 0.346 0.291 0.853  1.65  0.50  13.7  20.1   -99   -99   8.3   -99  12.0   -99
   90.    C1 0.096 0.197 0.343 0.154 0.903  1.66  0.40  12.9  21.0   -99   -99   8.3   -99  12.0   -99
  120.    C1 0.091 0.188 0.337 0.016 1.001  1.67  0.30  11.3  22.9   -99   -99   8.3   -99  12.0   -99
  150.    C2 0.089 0.175 0.314 0.000 0.838  1.77  0.21  10.4  21.5   -99   -99   8.3   -99  12.0   -99
  180.    C2 0.080 0.161 0.319 0.000 1.266  1.75  0.11   9.2  18.7   -99   -99   8.3   -99  12.0   -99
  210.    C2 0.076 0.154 0.321 0.000 1.480  1.73  0.01   8.6  17.3   -99   -99   8.3   -99  12.0   -99

*AZMA890003  KIMBALL     CLLO   210. Trix Clay Loam, 1989-1991
@SITE....... COUNTRY....      LAT     LONG SCSFAMILY.........................................
 MA-Maricopa AZ Location   33.050  112.000 FINE-LOAMY, MIXED (CALCAREOUS), HYPERTHERMIC TYPIC
@ SCOM  SALB  SLU1  SLDR  SLRO  SLNF  SLPF  SMHB  SMPX  SMKE
 -99    0.20   0.1  0.70   70.  1.00  1.00 SA001 SA001 SA001
@  SLB  SLMH  SLLL  SDUL  SSAT  SRGF  SSKS  SBDM  SLOC  SLCL  SLSI  SLCF  SLNI  SLHW  SLHB  SCEC  SADC
    5.    AP 0.202 0.357 0.417 1.000 4.300  1.31  0.41  34.0  31.0   0.0   -99   8.5   -99  25.5   -99
   15.    AP 0.201 0.356 0.424 1.000 4.300  1.27  0.35  34.0  31.0   0.0   -99   8.5   -99  25.5   -99
   30.    AP 0.199 0.355 0.424 1.000 4.300  1.27  0.27  34.0  31.0   0.0   -99   8.5   -99  25.5   -99
   50.    C1 0.198 0.353 0.493 0.800 4.300  1.30  0.24  34.0  31.0   0.0   -99   8.6   -99  24.5   -99
   60.    C1 0.198 0.353 0.493 0.600 4.300  1.47  0.16  34.0  31.0   0.0   -99   8.6   -99  23.5   -99
   70.    C1 0.198 0.353 0.493 0.500 4.300  1.47  0.16  34.0  31.0   0.0   -99   8.6   -99  23.5   -99
   90.    C2 0.186 0.341 0.493 0.400 4.300  1.57  0.30  30.0  25.0   0.0   -99   8.6   -99  20.7   -99
  110.    C2 0.159 0.314 0.493 0.300 4.300  1.57  0.10  25.0  20.0   0.0   -99   8.6   -99  17.3   -99
  120.    C2 0.159 0.314 0.493 0.200 4.300  1.57  0.10  25.0  20.0   0.0   -99   8.6   -99  17.3   -99
  130.    C2 0.159 0.314 0.493 0.100 4.300  1.57  0.10  25.0  20.0   0.0   -99   8.6   -99  17.3   -99
  150.    C2 0.136 0.291 0.493 0.100 4.300  1.57  0.00  20.0  20.0   0.0   -99   8.6   -99  13.8   -99
  170.    C2 0.136 0.291 0.493 0.100 4.300  1.57  0.00  20.0  20.0   0.0   -99   8.6   -99  13.8   -99
  190.    C2 0.128 0.283 0.493 0.000 4.300  1.57  0.00  18.0  17.0   0.0   -99   8.6   -99  12.4   -99
  210.    C2 0.128 0.283 0.493 0.000 4.300  1.57  0.00  18.0  17.0   0.0   -99   8.6   -99  12.4   -99

*AZMA990001  FLDAVG      SACLL  210. Casa Grande Silty Clay Loam 1999
@SITE....... COUNTRY....      LAT     LONG SCSFAMILY.........................................
 MA-Maricopa AZ Location   33.050 -112.000 FINE-LOAMY, MIXED, HYPERTHERMIC TYPIC NATRARGIDS
@ SCOM  SALB  SLU1  SLDR  SLRO  SLNF  SLPF  SMHB  SMPX  SMKE
 -99    0.20  12.0  0.50   76.  1.00  0.90 SA001 SA001 SA001
@  SLB  SLMH  SLLL  SDUL  SSAT  SRGF  SSKS  SBDM  SLOC  SLCL  SLSI  SLCF  SLNI  SLHW  SLHB  SCEC  SADC
    5.    AP 0.091 0.197 0.407 1.000 1.500  1.49  0.58  21.0  10.8   -99   -99   8.3   -99  12.0   -99
   15.    AP 0.091 0.197 0.407 1.000 1.500  1.49  0.58  21.0  10.8   -99   -99   8.3   -99  12.0   -99
   30.    AP 0.091 0.197 0.407 1.000 1.500  1.49  0.58  21.0  10.8   -99   -99   8.3   -99  12.0   -99
   45.    C1 0.098 0.210 0.435 0.600 2.000  1.40  0.17  22.6  10.8   -99   -99   8.3   -99  12.0   -99
   60.    C1 0.103 0.230 0.431 0.300 1.900  1.42  0.17  24.1  10.7   -99   -99   8.3   -99  12.0   -99
   90.    C1 0.110 0.240 0.400 0.100 1.200  1.53  0.17  24.0  12.5   -99   -99   8.3   -99  12.0   -99
  120.    C1 0.100 0.250 0.382 0.100 1.000  1.58  0.17  21.4  11.8   -99   -99   8.3   -99  12.0   -99
  150.    C2 0.081 0.220 0.378 0.100 1.700  1.58  0.17  16.9   9.2   -99   -99   8.3   -99  12.0   -99
  180.    C2 0.088 0.184 0.380 0.050 1.300  1.58  0.17  19.2   9.4   -99   -99   8.3   -99  12.0   -99
  210.    C2 0.088 0.205 0.380 0.000 1.300  1.58  0.17  19.2   9.4   -99   -99   8.3   -99  12.0   -99

*AZMC920001  KIMBALL     CL      210 TRIX CLAY LOAM
@SITE        COUNTRY          LAT     LONG SCS FAMILY
 MARICOPA    USA            33.050 112.000 FINE-LOAMY, MIXED (CALCAREOUS), HYPERTHERMIC TYPIC
@ SCOM  SALB  SLU1  SLDR  SLRO  SLNF  SLPF  SMHB  SMPX  SMKE
   -99  0.20  12.0  0.29  70.0  1.00  0.90   -99   -99   -99
@  SLB  SLMH  SLLL  SDUL  SSAT  SRGF  SSKS  SBDM  SLOC  SLCL  SLSI  SLCF  SLNI  SLHW  SLHB  SCEC  SADC
     5    AP 0.202 0.320 0.417 1.000  4.30  1.31  0.41  34.0  31.0   0.0   -99   8.5   -99  25.5   -99 
    15    AP 0.201 0.319 0.424 0.741  4.30  1.27  0.35  34.0  31.0   0.0   -99   8.5   -99  25.5   -99 
    30    AP 0.199 0.319 0.424 0.607  4.30  1.27  0.27  34.0  31.0   0.0   -99   8.5   -99  25.5   -99 
    50    C1 0.198 0.318 0.419 0.449  4.30  1.30  0.24  34.0  31.0   0.0   -99   8.6   -99  24.5   -99 
    60    C1 0.198 0.318 0.387 0.301  4.30  1.47  0.16  34.0  31.0   0.0   -99   8.6   -99  23.5   -99 
    70    C1 0.198 0.318 0.387 0.301  4.30  1.47  0.16  34.0  31.0   0.0   -99   8.6   -99  23.5   -99 
    90    C2 0.186 0.299 0.359 0.183  4.30  1.57  0.30  30.0  25.0   0.0   -99   8.6   -99  20.7   -99 
   110    C2 0.159 0.275 0.347 0.100  4.30  1.57  0.10  25.0  20.0   0.0   -99   8.6   -99  17.3   -99 
   120    C2 0.159 0.275 0.347 0.100  4.30  1.57  0.10  25.0  20.0   0.0   -99   8.6   -99  17.3   -99 
   130    C2 0.159 0.275 0.347 0.100  4.30  1.57  0.10  25.0  20.0   0.0   -99   8.6   -99  17.3   -99 
   150    C2 0.136 0.254 0.336 0.055  4.30  1.57  0.00  20.0  20.0   0.0   -99   8.6   -99  13.8   -99 
   170    C2 0.136 0.254 0.336 0.000  4.30  1.57  0.00  20.0  20.0   0.0   -99   8.6   -99  13.8   -99 
   190    C2 0.128 0.244 0.331 0.000  4.30  1.57  0.00  18.0  17.0   0.0   -99   8.6   -99  12.4   -99 
   210    C2 0.128 0.244 0.331 0.000  4.30  1.57  0.00  18.0  17.0   0.0   -99   8.6   -99  12.4   -99 

