*SOILS: Agriculture and Agrifood Canada

*CAON080010  ON OTA       CL      100 CFIA-16
@SITE  3     COUNTRY          LAT     LONG SCS FAMILY
 ONOttawa05A Canada            -99     -99 GL  ON    O
@ SCOM  SALB  SLU1  SLDR  SLRO  SLNF  SLPF  SMHB  SMPX  SMKE
   -99   .13    10    .4    74     1     1 IB001 IB001 IB001
@  SLB  SLMH  SLLL  SDUL  SSAT  SRGF  SSKS  SBDM  SLOC  SLCL  SLSI  SLCF  SLNI  SLHW  SLHB  SCEC  SADC
    30     A   .13   .29   .47     1   .23   1.4   3.1  37.3  49.0     0   -99   -99   6.2   -99   -99
    60     B   .11   .26   .48  .407    10   1.3   2.4  31.4  36.6     0   -99   -99   6.2   -99   -99
   100    BC   .11   .23   .48  .202    10   1.3    .2  31.4  36.6     0   -99   -99   6.2   -99   -99
   
*CAAB000001  AB CYG    A L        120  CYGNET
@SITE        COUNTRY          LAT     LONG SCS FAMILY
 AB CYG    A Canada            -99     -99 CH  BLC  E
@ SCOM  SALB  SLU1  SLDR  SLRO  SLNF  SLPF  SMHB  SMPX  SMKE
   -99   .13    10    .7    74     1     1 IB001 IB001 IB001
@  SLB  SLMH  SLLL  SDUL  SSAT  SRGF  SSKS  SBDM  SLOC  SLCL  SLSI  SLCF  SLNI  SLHW  SLHB  SCEC  SADC
    18     A  .105  .302  .488     1  1.32   1.2     1    22    32     5   -99   -99   6.2    30   -99
    30     A  .119  .314  .488    .9  1.32   1.2     1    27    30     5   -99   -99   5.8    23   -99
    56     B  .114  .296  .489  .423  1.32   1.2    .8    25    31     5   -99   -99   5.5    19   -99
   112     B  .115  .282  .489  .186   .43   1.2    .8    23    24     5   -99   -99   5.9    20   -99
   120    BC  .115  .303  .489  .098  1.32   1.2    .8    23    35     5   -99   -99     7    21   -99

*CAOT900010  OT OTH    A L        100  OTH  O.DBC
@SITE        COUNTRY          LAT     LONG SCS FAMILY
 OT OTH    A Canada            -99     -99 CH  OTH  O
@ SCOM  SALB  SLU1  SLDR  SLRO  SLNF  SLPF  SMHB  SMPX  SMKE
   -99   .12     8    .6    61     1     1 IB001 IB001 IB001
@  SLB  SLMH  SLLL  SDUL  SSAT  SRGF  SSKS  SBDM  SLOC  SLCL  SLSI  SLCF  SLNI  SLHW  SLHB  SCEC  SADC
    20   -99  .136  .284  .497     1  2.53  1.33  2.27    18    40   -99   -99     7   -99   -99   -99
    40   -99  .132  .277   .48     1  2.23  1.38  1.07    18    40   -99   -99     7   -99   -99   -99
    60   -99  .118  .253  .424  .472  1.39  1.53   .28    18    40   -99   -99     7   -99   -99   -99
    80   -99  .113  .244  .405   .35  1.15  1.58   .07    18    40   -99   -99     7   -99   -99   -99
   100   -99  .112  .242  .398  .192  1.08  1.59   .03    18    40   -99   -99     7   -99   -99   -99
   150   -99  .225  .353  .366  .082   .23  1.62   .32  38.1  32.9   -99   -99     7   -99   -99   -99
   
*CAMO900010  OT OTH    A CL       150  OTH  O.DBC
@SITE        COUNTRY          LAT     LONG SCS FAMILY
 OT OTH    A Morocco           -99     -99 CH  OTH  O
@ SCOM  SALB  SLU1  SLDR  SLRO  SLNF  SLPF  SMHB  SMPX  SMKE
   -99   .12     8    .6    61     1     1 IB001 IB001 IB001
@  SLB  SLMH  SLLL  SDUL  SSAT  SRGF  SSKS  SBDM  SLOC  SLCL  SLSI  SLCF  SLNI  SLHW  SLHB  SCEC  SADC
     5   -99  .275  .433  .441     1  2.53  1.37  2.41  36.7    23   -99   -99     7   -99   -99   -99
    15   -99   .25  .401  .416     1  2.23  1.46  1.27  37.8    33   -99   -99     7   -99   -99   -99
    30   -99  .248  .399  .411  .472  1.39  1.48  1.07  38.6    35   -99   -99     7   -99   -99   -99
    60   -99  .245  .366  .369   .35  1.15   1.6   .82  39.3    33   -99   -99     7   -99   -99   -99
   100   -99  .229  .362  .366  .192  1.08  1.62    .4  38.5    34   -99   -99     7   -99   -99   -99
   150   -99  .225  .353  .366  .082   .23  1.62   .32  38.1  32.9   -99   -99     7   -99   -99   -99
   

*CAES900010  OT OTH    A CL       150  OTH  O.DBC
@SITE        COUNTRY          LAT     LONG SCS FAMILY
 OT OTH    A Spain             -99     -99 CH  OTH  O
@ SCOM  SALB  SLU1  SLDR  SLRO  SLNF  SLPF  SMHB  SMPX  SMKE
   -99   .12     8    .6    61     1     1 IB001 IB001 IB001
@  SLB  SLMH  SLLL  SDUL  SSAT  SRGF  SSKS  SBDM  SLOC  SLCL  SLSI  SLCF  SLNI  SLHW  SLHB  SCEC  SADC
     5   -99  .377  .492  .499     1   .23  1.27  7.89  27.2  37.6   -99   -99     7   -99   -99   -99
    15   -99  .242  .441  .494     1  1.32  1.36  3.01  26.9    39   -99   -99     7   -99   -99   -99
    30   -99  .217  .377  .424  .638   .23  1.43  1.68    29    35   -99   -99     7   -99   -99   -99
    60   -99  .216  .361  .388  .407   .23  1.54  1.17  31.7  32.8   -99   -99     7   -99   -99   -99
   100   -99  .203  .334   .37  .202   .23   1.6   .67  31.8    32   -99   -99     7   -99   -99   -99
   150   -99  .199  .325  .368  .082   .23  1.61    .5  31.8    32   -99   -99     7   -99   -99   -99

*CAIT900010  OT OTH    A CL       150  OTH  O.DBC
@SITE        COUNTRY          LAT     LONG SCS FAMILY
 OT OTH    A Spain             -99     -99 CH  OTH  O
@ SCOM  SALB  SLU1  SLDR  SLRO  SLNF  SLPF  SMHB  SMPX  SMKE
   -99   .12     8    .6    61     1     1 IB001 IB001 IB001
@  SLB  SLMH  SLLL  SDUL  SSAT  SRGF  SSKS  SBDM  SLOC  SLCL  SLSI  SLCF  SLNI  SLHW  SLHB  SCEC  SADC
     5   -99  .307  .442  .463     1   .23  1.27  4.46    32  37.6   -99   -99     7   -99   -99   -99
    15   -99  .216  .374  .416     1   .23  1.46  1.28    31  38.4   -99   -99     7   -99   -99   -99
    30   -99  .237  .388  .397  .638   .23   1.5  1.86    32  37.5   -99   -99     7   -99   -99   -99
    60   -99  .213  .363  .404  .407   .23   1.5   .96  32.1  38.1   -99   -99     7   -99   -99   -99
   100   -99  .207  .354  .399  .202   .23  1.52    .7  32.3  39.6   -99   -99     7   -99   -99   -99
   150   -99  .205  .346  .397  .082   .23  1.53   .55  32.9  38.1   -99   -99     7   -99   -99   -99

*CAIN900010  OT OTH    A CL       150  OTH  O.DBC
@SITE        COUNTRY          LAT     LONG SCS FAMILY
 OT OTH    A Spain             -99     -99 CH  OTH  O
@ SCOM  SALB  SLU1  SLDR  SLRO  SLNF  SLPF  SMHB  SMPX  SMKE
   -99   .12     8    .6    61     1     1 IB001 IB001 IB001
@  SLB  SLMH  SLLL  SDUL  SSAT  SRGF  SSKS  SBDM  SLOC  SLCL  SLSI  SLCF  SLNI  SLHW  SLHB  SCEC  SADC
     5   -99  .251  .408  .449     1   .23  1.65  1.07  39.1    38   -99   -99     7   -99   -99   -99
    15   -99  .252    .4  .448     1   .06  1.66   .74  41.2  36.7   -99   -99     7   -99   -99   -99
    30   -99  .259  .401  .439  .638   .06  1.69   .55  43.6  35.4   -99   -99     7   -99   -99   -99
    60   -99  .252  .392  .419  .407   .06  1.75   .42    43  35.9   -99   -99     7   -99   -99   -99
   100   -99  .249  .389  .415  .202   .06  1.76   .42  42.3  36.2   -99   -99     7   -99   -99   -99
   150   -99  .252  .394  .418  .082   .06  1.75    .5  42.4  36.6   -99   -99     7   -99   -99   -99

*CANP900010  OT OTH    A L        150  OTH  O.DBC
@SITE        COUNTRY          LAT     LONG SCS FAMILY
 OT OTH    A Spain             -99     -99 CH  OTH  O
@ SCOM  SALB  SLU1  SLDR  SLRO  SLNF  SLPF  SMHB  SMPX  SMKE
   -99   .12     8    .6    61     1     1 IB001 IB001 IB001
@  SLB  SLMH  SLLL  SDUL  SSAT  SRGF  SSKS  SBDM  SLOC  SLCL  SLSI  SLCF  SLNI  SLHW  SLHB  SCEC  SADC
     5   -99  .207  .409  .438     1  1.32  1.37  2.73  21.3  45.8   -99   -99     7   -99   -99   -99
    15   -99  .177  .353  .443     1  1.32  1.38  1.66  21.2  45.8   -99   -99     7   -99   -99   -99
    30   -99  .179  .331  .435  .638  1.32  1.42   .79  26.2  42.9   -99   -99     7   -99   -99   -99
    60   -99  .166  .312  .441  .407  1.32  1.41    .5  25.3  43.4   -99   -99     7   -99   -99   -99
   100   -99  .179  .318  .434  .202   .23  1.43   .37  28.5  40.9   -99   -99     7   -99   -99   -99
   150   -99  .168  .304  .435  .082  1.32  1.43   .31  26.8  40.2   -99   -99     7   -99   -99   -99

*CABD900010  OT OTH    A SICL     150  OTH  O.DBC
@SITE        COUNTRY          LAT     LONG SCS FAMILY
 OT OTH    A Spain             -99     -99 CH  OTH  O
@ SCOM  SALB  SLU1  SLDR  SLRO  SLNF  SLPF  SMHB  SMPX  SMKE
   -99   .12     8    .6    61     1     1 IB001 IB001 IB001
@  SLB  SLMH  SLLL  SDUL  SSAT  SRGF  SSKS  SBDM  SLOC  SLCL  SLSI  SLCF  SLNI  SLHW  SLHB  SCEC  SADC
     5   -99   .24  .456  .488     1   .15  1.24  2.51  29.2  52.7   -99   -99     7   -99   -99   -99
    15   -99  .221   .42  .482     1   .15  1.27  1.83  29.1  52.8   -99   -99     7   -99   -99   -99
    30   -99  .229  .425  .468  .638   .15  1.31  1.69  31.3  52.3   -99   -99     7   -99   -99   -99
    60   -99  .234  .437  .459  .407   .15  1.33  1.91  31.1  53.3   -99   -99     7   -99   -99   -99
   100   -99  .231  .428   .45  .202   .15  1.36  1.67  31.9    53   -99   -99     7   -99   -99   -99
   150   -99  .224  .414  .451  .082   .15  1.36  1.47  31.6    52   -99   -99     7   -99   -99   -99

*CAUS900010  OT OTH    A SIL      150  OTH  O.DBC
@SITE        COUNTRY          LAT     LONG SCS FAMILY
 OT OTH    A Spain             -99     -99 CH  OTH  O
@ SCOM  SALB  SLU1  SLDR  SLRO  SLNF  SLPF  SMHB  SMPX  SMKE
   -99   .12     8    .6    61     1     1 IB001 IB001 IB001
@  SLB  SLMH  SLLL  SDUL  SSAT  SRGF  SSKS  SBDM  SLOC  SLCL  SLSI  SLCF  SLNI  SLHW  SLHB  SCEC  SADC
     5   -99  .174  .404  .465     1   .68   1.3  2.64  15.3  62.2   -99   -99     7   -99   -99   -99
    15   -99  .151  .352  .451     1   .68  1.36  1.51  16.8  61.4   -99   -99     7   -99   -99   -99
    30   -99   .14  .334  .439  .638   .68   1.4  1.16  16.5  61.9   -99   -99     7   -99   -99   -99
    60   -99   .12  .301  .436  .407   .68  1.42   .61  15.5  62.8   -99   -99     7   -99   -99   -99
   100   -99  .109  .282  .435  .202   .68  1.43   .36  14.6  61.8   -99   -99     7   -99   -99   -99
   150   -99  .099  .266  .432  .082   .68  1.44    .2  13.5  61.4   -99   -99     7   -99   -99   -99
   
*CAQC210001  QC LUK  5 A SL       150  LuskVILLE
@SITE        COUNTRY          LAT     LONG SCS FAMILY
 QC LUK  5 A Canada         45.467 -75.917 GL  HG   O
@ SCOM  SALB  SLU1  SLDR  SLRO  SLNF  SLPF  SMHB  SMPX  SMKE
   -99   .09    10    .9    84     1     1 IB001 IB001 IB001
@  SLB  SLMH  SLLL  SDUL  SSAT  SRGF  SSKS  SBDM  SLOC  SLCL  SLSI  SLCF  SLNI  SLHW  SLHB  SCEC  SADC
    10     A    .1    .2    .5     1   .47  1.51   2.4    15    32     0   .21   6.4   -99    19   -99
    20     B   .11   .32   .57     1  1.32  1.52   2.4    15    36     0   .23   6.2   -99    22   -99
    30     B   .11   .33   .49  .607  2.59  1.52   1.9    14    33     0   .16   6.5   -99    21   -99
    40     B   .12   .34   .51  .497  1.32  1.48    .9    15    35     0   .26   6.5   -99    19   -99
    50     B   .16   .35   .47  .407  1.32  1.34    .9    17    33     0   .41   6.7   -99    18   -99
    60     B   .16   .36   .59  .333  4.34  1.32    .8    15    29     0   .38   6.9   -99    15   -99
    70     B    .2   .38   .49  .273  2.59   1.3    .9    20    25     0   .46   6.6   -99    21   -99
    80     B    .2   .38   .52  .223   .43  1.33    .8    28    26     0   .81   6.8   -99    17   -99
    90     B    .2   .38   .49  .183   .23  1.38    .8    31    29     0   .75   6.7   -99    18   -99
   150     C    .2   .38   .49  .091   .23  1.38    .8    31    29     0   .75   6.7   -99    18   -99
   
*CASC900051  OT OTH    A L        180  OTH  O.DBC
@SITE        COUNTRY          LAT     LONG SCS FAMILY
 OT OTH    A Canada            -99     -99 CH  OTH  O
@ SCOM  SALB  SLU1  SLDR  SLRO  SLNF  SLPF  SMHB  SMPX  SMKE
   -99   .12     8   .35    61     1     1 IB001 IB001 IB001
@  SLB  SLMH  SLLL  SDUL  SSAT  SRGF  SSKS  SBDM  SLOC  SLCL  SLSI  SLCF  SLNI  SLHW  SLHB  SCEC  SADC
    20   -99   .12   .24  .497     1  2.53  1.22  1.74    23    49   -99   -99     7   -99   -99   -99
    40   -99   .12   .24   .48    .8  2.23   1.3  1.61    23    50   -99   -99     7   -99   -99   -99
    60   -99   .12   .23  .424    .4  1.39   1.4  1.54    27    41   -99   -99     7   -99   -99   -99
    80   -99   .12   .26  .405   .18  1.15  1.58  1.51    32    28   -99   -99     7   -99   -99   -99
   100   -99  .125   .26  .398   .07  1.08  1.76  1.35    32    28   -99   -99     7   -99   -99   -99
   180   -99  .125   .26  .398   .01  1.08  1.76  1.35    32    28   -99   -99     7   -99   -99   -99

*CASK000258  XT MRA    A SIC      150  MELFORT O.BLC
@SITE        COUNTRY          LAT     LONG SCS FAMILY
 SK MRA    A Canada            -99     -99 CH  BLC  O
@ SCOM  SALB  SLU1  SLDR  SLRO  SLNF  SLPF  SMHB  SMPX  SMKE
   -99   .13    10    .6    80     1     1 IB001 IB001 IB001
@  SLB  SLMH  SLLL  SDUL  SSAT  SRGF  SSKS  SBDM  SLOC  SLCL  SLSI  SLCF  SLNI  SLHW  SLHB  SCEC  SADC
    19     A   .28   .45   .55     1   .54   1.2   4.5    50    40     0   -99   -99   6.6    43   -99
    58     B   .27   .46   .51   .45    .5   1.3   1.3    49    44     0   -99   -99   6.8    33   -99
   100     C   .28   .46   .51   .07   .39   1.3    .5    52    45     0   -99   -99   7.9    31   -99
   150     C   .28   .46   .51   .01   .39   1.3    .5    52    45     0   -99   -99   7.9    31   -99
   
*CASC900061  OT OTH    A L        180  OTH  O.DBC
@SITE        COUNTRY          LAT     LONG SCS FAMILY
 OT OTH    A Canada            -99     -99 CH  OTH  O
@ SCOM  SALB  SLU1  SLDR  SLRO  SLNF  SLPF  SMHB  SMPX  SMKE
   -99   .12     8   .45    61     1     1 IB001 IB001 IB001
@  SLB  SLMH  SLLL  SDUL  SSAT  SRGF  SSKS  SBDM  SLOC  SLCL  SLSI  SLCF  SLNI  SLHW  SLHB  SCEC  SADC
    20   -99   .09   .26  .497     1  2.53  1.22  1.74    23    49   -99   -99     7   -99   -99   -99
    40   -99   .09   .26   .48     1  2.23   1.3  1.61    23    50   -99   -99     7   -99   -99   -99
    60   -99   .09   .26  .424  .472  1.39   1.4  1.54    27    41   -99   -99     7   -99   -99   -99
    80   -99  .095   .27  .405   .35  1.15  1.58  1.51    32    28   -99   -99     7   -99   -99   -99
   100   -99  .095   .27  .398  .192  1.08  1.76  1.35    32    28   -99   -99     7   -99   -99   -99
   180   -99  .095   .27  .398  .192  1.08  1.76  1.35    32    28   -99   -99     7   -99   -99   -99
   
*CASC900010  OT OTH    A L        150  OTH  O.DBC
@SITE        COUNTRY          LAT     LONG SCS FAMILY
 OT OTH    A Canada            -99     -99 CH  OTH  O
@ SCOM  SALB  SLU1  SLDR  SLRO  SLNF  SLPF  SMHB  SMPX  SMKE
   -99   .12     8   .35    61     1     1 IB001 IB001 IB001
@  SLB  SLMH  SLLL  SDUL  SSAT  SRGF  SSKS  SBDM  SLOC  SLCL  SLSI  SLCF  SLNI  SLHW  SLHB  SCEC  SADC
    10   -99   .12  .269  .497     1  2.53  1.11  1.72    23    49   -99   -99     7   -99   -99   -99
    20   -99   .12  .269   .48     1  2.23  1.28  1.61    23    49   -99   -99     7   -99   -99   -99
    30   -99  .131    .3  .424  .472  1.39  1.29  1.54    27    41   -99   -99     7   -99   -99   -99
    40   -99  .131    .3  .424  .472  1.39  1.32  1.54    27    41   -99   -99     7   -99   -99   -99
    50   -99  .142  .298  .424  .472  1.39  1.39  1.54    27    41   -99   -99     7   -99   -99   -99
    60   -99  .142  .298  .424  .472  1.39  1.45  1.54    27    41   -99   -99     7   -99   -99   -99
    80   -99  .152  .312  .424  .472  1.39  1.52  1.54    27    41   -99   -99     7   -99   -99   -99
   100   -99  .158  .326  .405   .35  1.15  1.58  1.51    32    28   -99   -99     7   -99   -99   -99
   150   -99  .158  .326  .398  .192  1.08  1.58  1.35    32    28   -99   -99     7   -99   -99   -99
! 11/23/2022 KJB changed SLDR from 0.90 to 0.70 (closer to a loam, but stones?)
! 1/26/23 kjb considered changing SLUI from 10 to 8mm, but the effect was not good.  Always short on water
! 1/26/23 kjb considered increasing soil depth from 120 to 130 cm, but effect did not help much

