*SOILS: Soil Input File for LTAR CAF site & other Lentil experiments

*CF_LTAR057  CAL LTAR    SIL      155  Calculated from CAF plot data
@SITE        COUNTRY          LAT     LONG SCS FAMILY
 Pullman, WA  USA         46.77999 46.7793 Palouse etc.
@ SCOM  SALB  SLU1  SLDR  SLRO  SLNF  SLPF  SMHB  SMPX  SMKE
    BK   .17     6    .5    80     1     1 SA001 SA001 SA001
@  SLB  SLMH  SLLL  SDUL  SSAT  SRGF  SSKS  SBDM  SLOC  SLCL  SLSI  SLCF  SLNI  SLHW  SLHB  SCEC  SADC
    10    Ap   .13   .33   .45     1   .68  1.33  2.19 18.26 71.74     0   .16   5.2   -99   -99   -99
    20    Ap   .13   .33   .45     1   .68  1.33  1.98 18.26 71.74     0   .14   5.3   -99   -99   -99
    30    Ap   .13   .33   .45     1   .68  1.39   .88 18.26 71.74     0   .08   6.1   -99   -99   -99
    49    AB   .13   .33   .45     1   .68  1.39    .5  16.2  73.8     0   .05   6.2   -99   -99   -99
    83   Bw1   .13   .33   .45    .7   .68   1.4   .38 14.06 75.94     0   .04   6.6   -99   -99   -99
   114   Bw2   .13   .34   .45    .7   .68  1.34   .33 14.06 75.94     0   .04   6.7   -99   -99   -99
   153   Bwk   .13   .35   .45   .25   .68  1.31   .82 14.06 75.94     0   .02   7.5   -99   -99   -99
   155   Bwk   .13   .35   .45     0  .001  1.31   .82 14.06 75.94     0   .02   7.5   -99   -99   -99

*CF_MONT001  CAL LTAR    SIL      150  Calculated from CAF plot data
@SITE        COUNTRY          LAT     LONG SCS FAMILY
 ost, MONT   USA             45.68 -111.15 -99
@ SCOM  SALB  SLU1  SLDR  SLRO  SLNF  SLPF  SMHB  SMPX  SMKE
    BK   .17     6    .5    61     1     1 SA001 SA001 SA001
@  SLB  SLMH  SLLL  SDUL  SSAT  SRGF  SSKS  SBDM  SLOC  SLCL  SLSI  SLCF  SLNI  SLHW  SLHB  SCEC  SADC
    10   -99  .147  .378  .476     1   .68  1.27   2.6    10    65     0   .16   7.7   -99   -99   -99
    20   -99  .147  .378  .476     1   .68  1.27   2.6    10    65     0   .13   7.7   -99   -99   -99
    30   -99  .147  .378  .476  .607   .68  1.27   2.6    10    65     0   .09   7.7   -99   -99   -99
   150   -99  .147  .378  .402  .165   .68  1.47   2.6    10    65     0   .05   7.7   -99   -99   -99

*CF_MONT002  CAL LTAR    L        150  Calculated from CAF plot data
@SITE        COUNTRY          LAT     LONG SCS FAMILY
 ost, MONT   USA             48.49  -109.8 -99
@ SCOM  SALB  SLU1  SLDR  SLRO  SLNF  SLPF  SMHB  SMPX  SMKE
    BK   .17     6    .5    61     1     1 SA001 SA001 SA001
@  SLB  SLMH  SLLL  SDUL  SSAT  SRGF  SSKS  SBDM  SLOC  SLCL  SLSI  SLCF  SLNI  SLHW  SLHB  SCEC  SADC
    10   -99  .175  .342  .482     1  1.32  1.27   1.8    20    40     0   .16   7.7   -99   -99   -99
    20   -99  .175  .342  .482     1  1.32  1.27   1.8    20    40     0   .13   7.7   -99   -99   -99
    30   -99  .175  .342  .482  .607  1.32  1.27   1.8    20    40     0   .09   7.7   -99   -99   -99
   150   -99  .175  .342  .408  .165  1.32  1.47   1.8    20    40     0   .05   7.7   -99   -99   -99

*CF_MONT003  CAL LTAR    SL       150  Calculated from CAF plot data
@SITE        COUNTRY          LAT     LONG SCS FAMILY
 ost, MONT   USA             48.49  -109.8 -99
@ SCOM  SALB  SLU1  SLDR  SLRO  SLNF  SLPF  SMHB  SMPX  SMKE
    BK   .17     6    .5    61     1     1 SA001 SA001 SA001
@  SLB  SLMH  SLLL  SDUL  SSAT  SRGF  SSKS  SBDM  SLOC  SLCL  SLSI  SLCF  SLNI  SLHW  SLHB  SCEC  SADC
    10   -99  .117  .231  .484     1  1.32  1.27   1.5    10    20     0   .16   7.7   -99   -99   -99
    20   -99  .117  .231  .484     1  1.32  1.27   1.5    10    20     0   .13   7.7   -99   -99   -99
    30   -99  .117  .231  .484  .607  1.32  1.27   1.5    10    20     0   .09   7.7   -99   -99   -99
   150   -99  .117  .231  .411  .165  1.32  1.47   1.5    10    20     0   .05   7.7   -99   -99   -99

*CF_MEKN001  CAL LTAR    SICL     150  Calculated from CAF plot data
@SITE        COUNTRY          LAT     LONG SCS FAMILY
 Meknes,     Morocco         33.84    5.48 -99
@ SCOM  SALB  SLU1  SLDR  SLRO  SLNF  SLPF  SMHB  SMPX  SMKE
    BK   .17     6    .5    61     1     1 SA001 SA001 SA001
@  SLB  SLMH  SLLL  SDUL  SSAT  SRGF  SSKS  SBDM  SLOC  SLCL  SLSI  SLCF  SLNI  SLHW  SLHB  SCEC  SADC
    10   -99  .262  .462  .481     1   .15  1.27     2  36.3  48.8     0   -99   8.5   -99   -99   -99
    20   -99  .262  .462  .481     1   .15  1.27     2  36.3  48.8     0   -99   8.5   -99   -99   -99
    30   -99  .262  .462  .481  .607   .15  1.27     2  36.3  48.8     0   -99   8.5   -99   -99   -99
   150   -99  .262  .462  .487  .165   .15  1.47     2  36.3  48.8     0   -99   8.5   -99   -99   -99

*CF_MEKN002  CAL LTAR    SICL     150  Calculated from CAF plot data
@SITE        COUNTRY          LAT     LONG SCS FAMILY
 Meknes,     Morocco         33.84    5.48 -99
@ SCOM  SALB  SLU1  SLDR  SLRO  SLNF  SLPF  SMHB  SMPX  SMKE
    BK   .17     6    .5    61     1     1 SA001 SA001 SA001
@  SLB  SLMH  SLLL  SDUL  SSAT  SRGF  SSKS  SBDM  SLOC  SLCL  SLSI  SLCF  SLNI  SLHW  SLHB  SCEC  SADC
    10   -99  .277   .48  .499     1   .15  1.27   2.3  37.6  46.6     0   -99     8   -99   -99   -99
    20   -99  .277   .48  .499     1   .15  1.27   2.3  37.6  46.6     0   -99     8   -99   -99   -99
    30   -99  .277   .48  .499  .607   .15  1.27   2.3  37.6  46.6     0   -99     8   -99   -99   -99
   150   -99  .277   .48  .494  .165   .15  1.47   2.3  37.6  46.6     0   -99     8   -99   -99   -99

*CFSC900041  OT OTH    A L       180 OTH  O.DBC             !for Outlook,CA    brown soil      
@SITE  5     COUNTRY          LAT     LONG SCS FAMILY
 OT OTH    A Canada            -99    -99  CH  OTH  O  
@ SCOM  SALB  SLU1  SLDR  SLRO  SLNF  SLPF  SMHB  SMPX  SMKE
   -99  0.12   8.0  0.40  73.0  1.00  1.00 IB001 IB001 IB001
@  SLB  SLMH  SLLL  SDUL  SSAT  SRGF  SSKS  SBDM  SLOC  SLCL  SLSI  SLCF  SLNI  SLHW  SLHB  SCEC  SADC
    20   -99 0.120 0.280 0.497 1.000  2.53  1.22  1.74  23.0  49.0   -99   -99   7.0   -99   -99   -99 
    40   -99 0.120 0.280 0.480 1.000  2.23  1.30  1.61  23.0  50.0   -99   -99   7.0   -99   -99   -99 
    60   -99 0.120 0.270 0.424 0.472  1.39  1.40  1.54  27.0  41.0   -99   -99   7.0   -99   -99   -99 
    80   -99 0.120 0.290 0.405 0.350  1.15  1.58  1.51  32.0  28.0   -99   -99   7.0   -99   -99   -99 
   100   -99 0.125 0.290 0.398 0.192  1.08  1.76  1.35  32.0  28.0   -99   -99   7.0   -99   -99   -99 
   180   -99 0.125 0.290 0.398 0.192  1.08  1.76  1.35  32.0  28.0   -99   -99   7.0   -99   -99   -99 

*CFSK089943  SK GHX  J N   CL     150  HUMIC GLEYSOL        !for Saskatoon,CA    black
@SITE        COUNTRY          LAT     LONG SCS FAMILY
 SK GHX  J N Canada            -99     -99 GL  HG   -
@ SCOM  SALB  SLU1  SLDR  SLRO  SLNF  SLPF  SMHB  SMPX  SMKE
    BL   .09    10   .05    73     1     1 IB001 IB001 IB001
@  SLB  SLMH  SLLL  SDUL  SSAT  SRGF  SSKS  SBDM  SLOC  SLCL  SLSI  SLCF  SLNI  SLHW  SLHB  SCEC  SADC
    13     A   .15   .27   .51     1   5.3   1.3   3.5    28    30     0   -99   -99   6.4    17   -99
    52     B   .16   .31   .44  .522  4.85   1.4    .9    32    30     0   -99   -99   6.8    15   -99
   100     C   .16   .28   .43  .219  6.18   1.5    .3    32    30     0   -99   -99   7.7    14   -99
   150     C   .16   .28   .43  .219  6.18   1.5    .3    32    30     0   -99   -99   7.7    14   -99
