*SOILS: Soil profiles from Brazil
! Some of these soils are for use with the nitrate leaching version of the models
! which allows for input of an adsorption coefficient (SADC) for each layer.

*EBMZ850001  SCS         -99     120 LATOSSOLO VERMELHO AMARELLO
@SITE        COUNTRY          LAT     LONG SCS FAMILY
 CPAC        BRASIL        -15.590 -47.700 CLAYEY, OXIDIC, ISOTHERMIC ANIONIC ACRUSTOX
@ SCOM  SALB  SLU1  SLDR  SLRO  SLNF  SLPF  SMHB  SMPX  SMKE
    RY  0.14   7.1  0.50  76.0  1.00  1.00 IB001 IB001 IB001
@  SLB  SLMH  SLLL  SDUL  SSAT  SRGF  SSKS  SBDM  SLOC  SLCL  SLSI  SLCF  SLNI  SLHW  SLHB  SCEC  SADC
    15   -99 0.191 0.349 0.389 1.000   -99  0.93  1.81   -99   -99   -99   -99   5.9   -99   -99   0.0
    30   -99 0.237 0.339 0.367 0.200   -99  1.03  1.45   -99   -99   -99   -99   5.3   -99   -99   0.0
    45   -99 0.250 0.329 0.371 0.200   -99  1.01  1.20   -99   -99   -99   -99   5.2   -99   -99   0.0
    60   -99 0.256 0.329 0.385 0.200   -99  0.95  1.03   -99   -99   -99   -99   4.8   -99   -99   0.4
    75   -99 0.263 0.327 0.389 0.200   -99  0.93  0.81   -99   -99   -99   -99   4.5   -99   -99   0.8
    90   -99 0.266 0.320 0.394 0.200   -99  0.91  0.76   -99   -99   -99   -99   4.7   -99   -99   1.0
   105   -99 0.271 0.323 0.394 0.020   -99  0.91  0.69   -99   -99   -99   -99   4.8   -99   -99   1.2
   120   -99 0.275 0.328 0.394 0.010   -99  0.91  0.63   -99   -99   -99   -99   4.9   -99   -99   1.6

*EBPI080100  LVada       SC      450 Latossolo Vermelho Amarelo
@SITE        COUNTRY          LAT     LONG SCS FAMILY
 Piracicaba  Brasil         -22.83  -47.33 Ultima Correcao - SGRF, SSKS SLLL SDUL
@ SCOM  SALB  SLU1  SLDR  SLRO  SLNF  SLPF  SMHB  SMPX  SMKE
     R   .14     2    .2    70     1  0.95 IB001 IB001 IB001
@  SLB  SLMH  SLLL  SDUL  SSAT  SRGF  SSKS  SBDM  SLOC  SLCL  SLSI  SLCF  SLNI  SLHW  SLHB  SCEC  SADC
     5    Ap  .242  .366   .48     1   .38  1.37  1.74    40    22     0   -99     6   -99   5.3   -99
    15   A21  .242  .366   .48     1   .38  1.37  1.74    40    22     0   -99     6   -99   3.7   -99
    25   A22  .242  .366   .48   .87   .38  1.37   1.1    40    22     0   -99     6   -99   3.7   -99
    40   Bw1  .242  .366   .48   .79    .4  1.35    .7    44    22     0   -99   6.1   -99   2.7   -99
    55   Bw2  .240  .340   .48    .7    .4  1.15    .4    61     4     0   -99   6.5   -99   2.8   -99
    75   Bw2  .240  .340   .49   .62    .4  1.15    .4    61     4     0   -99   6.5   -99   2.8   -99
    85   Bw3  .240  .340   .49   .55    .4  1.13   .36    61     4     0   -99   6.5   -99   2.3   -99
   200   Bw5  .250  .350   .49   .31   .36  1.13   .36    59    10     0   -99   6.6   -99   2.1   -99
   450   Bw5  .250  .350   .49   .02   .36  1.13    .1    59    10     0   -99   6.6   -99   2.1   -99
   
*EBEP170001  -99         C       100 Piraciba soil
@SITE        COUNTRY          LAT     LONG SCS FAMILY
 EmbPecSud   Brasil          21.96   47.84 -99
@ SCOM  SALB  SLU1  SLDR  SLRO  SLNF  SLPF  SMHB  SMPX  SMKE
    BN   .13     6    .4    61     1     1 IB001 IB001 IB001
@  SLB  SLMH  SLLL  SDUL  SSAT  SRGF  SSKS  SBDM  SLOC  SLCL  SLSI  SLCF  SLNI  SLHW  SLHB  SCEC  SADC
    20    AB  .269  .423  .497     1   .06  1.21  2.82  41.2  14.9     0   -99   6.1   -99   8.3   -99
    40     C  .279  .405  .469  .549   .06   1.3  2.04  47.5   8.1     0   -99   -99   -99   -99   -99
    60     C  .268  .382  .454  .368   .06  1.35  1.59  47.8   7.6     0   -99   -99   -99   -99   -99
    80     C  .269  .378  .448  .247   .06  1.37  1.45  48.7   6.5     0   -99   -99   -99   -99   -99
   100     C  .257   .36  .436  .165   .06  1.41  1.09  48.3   7.7     0   -99   -99   -99   -99   -99
   200     C  .257   .36  .436   .10   .06  1.41  0.36  48.3   7.7     0   -99   -99   -99   -99   -99
   450     C  .257   .36  .436   .02   .06  1.41  0.36  48.3   7.7     0   -99   -99   -99   -99   -99   
