*SOILS: General DSSAT Soil Input File
! DSSAT v4.7; 2018-12-11
!
! Ethiopia Soils
! Compiled by Kirsten Paff for Teff model
!
*ETGA000011  Tulema,2007 C        210  Shallow Root Std Gare Arera Nitisol
@SITE        COUNTRY          LAT     LONG SCS FAMILY
 Gare Arera  Ethiopia         9.05    38.5 Nitisol
@ SCOM  SALB  SLU1  SLDR  SLRO  SLNF  SLPF  SMHB  SMPX  SMKE
    BN   .13 11.04   .25    73     1     1 IB001 IB001 IB001
@  SLB  SLMH  SLLL  SDUL  SSAT  SRGF  SSKS  SBDM  SLOC  SLCL  SLSI  SLCF  SLNI  SLHW  SLHB  SCEC  SADC
     5   -99  .371  .446   .56     1   .06  1.33  3.77  48.4  37.8   -99   .21   4.9   -99   -99   -99
    10   -99  .371  .434   .56     1   .06  1.36  3.77  48.4  37.8   -99   .21   4.9   -99   -99   -99
    20   -99  .371  .446   .56     1   .06  1.33  3.77  48.4  37.8   -99   .21   4.9   -99   -99   -99
    30   -99  .371  .452   .54  .607   .06  1.33  2.88  53.4  32.2   -99   .15   4.8   -99   -99   -99
    40   -99  .371  .441   .54     0   .06  1.36  2.88  53.4  32.2   -99   .15   4.8   -99   -99   -99
    60   -99  .337  .457  .517     0   .06  1.33   2.2  50.3  32.2   -99   .14   5.3   -99   -99   -99
    70   -99  .337  .446  .517     0   .06  1.36   2.2  50.3  32.2   -99   .14   5.3   -99   -99   -99
    90   -99  .337  .457  .517     0   .06  1.33   2.2  50.3  32.2   -99   .14   5.3   -99   -99   -99
   110   -99  .337  .446  .517     0   .06  1.36   2.2  50.3  32.2   -99   .14   5.3   -99   -99   -99
   150   -99  .337  .457  .517     0   .06  1.33   2.2  50.3  32.2   -99   .14   5.3   -99   -99   -99
   170   -99  .337  .446  .517     0   .06  1.36   2.2  50.3  32.2   -99   .14   5.3   -99   -99   -99
   210   -99  .337  .457  .517     0   .06  1.33   2.2  50.3  32.2   -99   .14   5.3   -99   -99   -99

*ETGA000012  Tulema,2007 C        210  Shallow Root Std Gare Arera Vertisol
@SITE        COUNTRY          LAT     LONG SCS FAMILY
 Gare Arera  Ethiopia         9.05    38.5 Vertisol
@ SCOM  SALB  SLU1  SLDR  SLRO  SLNF  SLPF  SMHB  SMPX  SMKE
    BL   .09 11.52   .05    73     1     1 IB001 IB001 IB001
@  SLB  SLMH  SLLL  SDUL  SSAT  SRGF  SSKS  SBDM  SLOC  SLCL  SLSI  SLCF  SLNI  SLHW  SLHB  SCEC  SADC
     5   -99  .376  .532  .554     1   .06  1.12  2.59  55.8  25.4   -99   .19   5.8   -99   -99   -99
    10   -99  .376  .532  .554     1   .06  1.12  2.59  55.8  25.4   -99   .19   5.8   -99   -99   -99
    20   -99  .376  .532  .554     1   .06  1.12  2.59  55.8  25.4   -99   .19   5.8   -99   -99   -99
    30   -99  .365  .517  .525  .607   .06  1.17  2.05  56.7  22.1   -99   .14   5.8   -99   -99   -99
    40   -99  .365  .517  .525     0   .06  1.17  2.05  56.7  22.1   -99   .14   5.8   -99   -99   -99
    80   -99  .372  .524  .535     0   .06  1.15  2.09  57.9  22.5   -99   .15   5.7   -99   -99   -99
   150   -99  .372  .524  .535     0   .06  1.15  2.09  57.9  22.5   -99   .15   5.7   -99   -99   -99
   210   -99  .372  .524  .535     0   .06  1.15  2.09  57.9  22.5   -99   .15   5.7   -99   -99   -99

*ETJD000006  Getu2012    C        210  Shallow Root Std Jamma Vertisol with Updated LL,DUL, and SAT
@SITE        COUNTRY          LAT     LONG SCS FAMILY
 Jamma       Ethiopia        10.45   39.25 Vertisol
@ SCOM  SALB  SLU1  SLDR  SLRO  SLNF  SLPF  SMHB  SMPX  SMKE
   -99    .1     6   .25    73     1     1 IB001 IB001 IB001
@  SLB  SLMH  SLLL  SDUL  SSAT  SRGF  SSKS  SBDM  SLOC  SLCL  SLSI  SLCF  SLNI  SLHW  SLHB  SCEC  SADC
     5   -99   .28   .51   .54     1   .06  1.14 1.017  62.5  21.3   -99    .1   6.5   -99  50.8   -99
    10   -99   .28   .51   .54     1   .06  1.14 1.017  62.5  21.3   -99    .1   6.5   -99  50.8   -99
    20   -99   .28   .51   .54     1   .06  1.14 1.017  62.5  21.3   -99    .1   6.5   -99  50.8   -99
    30   -99   .28   .51   .54  .607   .06  1.14 1.017  62.5  21.3   -99    .1   6.5   -99  50.8   -99
    40   -99   .26   .48   .51     0   .06  1.21  .901    65  26.3   -99   .06   6.5   -99    53   -99
    50   -99   .26   .48   .51     0   .06  1.21  .901    65  26.3   -99   .06   6.5   -99    53   -99
    60   -99   .26   .48   .51     0   .06  1.21  .901    65  26.3   -99   .06   6.5   -99    53   -99
    70   -99   .26   .48   .51     0   .06  1.21  .901    65  26.3   -99   .06   6.5   -99    53   -99
    80   -99   .21   .45   .48     0   .06  1.31  .872    65  18.8   -99   .06   6.6   -99  55.9   -99
    90   -99   .21   .45   .48     0   .06  1.31  .872    65  18.8   -99   .06   6.6   -99  55.9   -99
   110   -99   .21   .45   .48     0   .06  1.31  .669  65.5     7   -99   .04   6.6   -99  47.8   -99
   130   -99   .21   .45   .48     0   .06  1.31  .669  65.5     7   -99   .04   6.6   -99  47.8   -99
   150   -99   .21   .45   .48     0   .06  1.31  .669  65.5     7   -99   .04   6.6   -99  47.8   -99
   170   -99   .21   .45   .48     0   .06  1.31  .669  65.5     7   -99   .04   6.6   -99  47.8   -99
   190   -99   .21   .45   .48     0   .06  1.31  .669  65.5     7   -99   .04   6.6   -99  47.8   -99
   210   -99   .21   .45   .48     0   .06  1.31  .669  65.5     7   -99   .04   6.6   -99  47.8   -99
@  SLB  SLPX  SLPT  SLPO CACO3  SLAL  SLFE  SLMN  SLBS  SLPA  SLPB  SLKE  SLMG  SLNA  SLSU  SLEC  SLCA
     5   -99   -99   -99   -99   -99   -99   -99   -99   -99   -99    .7   -99   -99   -99   -99  30.6
    10   -99   -99   -99   -99   -99   -99   -99   -99   -99   -99    .6   -99   -99   -99   -99  30.8
    20   -99   -99   -99   -99   -99   -99   -99   -99   -99   -99    .5   -99   -99   -99   -99  25.5
    30   -99   -99   -99   -99   -99   -99   -99   -99   -99   -99    .7   -99   -99   -99   -99  30.6
    40   -99   -99   -99   -99   -99   -99   -99   -99   -99   -99    .6   -99   -99   -99   -99  30.8
    50   -99   -99   -99   -99   -99   -99   -99   -99   -99   -99    .5   -99   -99   -99   -99    31
    60   -99   -99   -99   -99   -99   -99   -99   -99   -99   -99    .5   -99   -99   -99   -99  25.5
    70   -99   -99   -99   -99   -99   -99   -99   -99   -99   -99    .7   -99   -99   -99   -99  30.6
    80   -99   -99   -99   -99   -99   -99   -99   -99   -99   -99    .6   -99   -99   -99   -99  30.8
    90   -99   -99   -99   -99   -99   -99   -99   -99   -99   -99    .5   -99   -99   -99   -99    31
   110   -99   -99   -99   -99   -99   -99   -99   -99   -99   -99    .5   -99   -99   -99   -99  25.5
   130   -99   -99   -99   -99   -99   -99   -99   -99   -99   -99    .7   -99   -99   -99   -99  30.6
   150   -99   -99   -99   -99   -99   -99   -99   -99   -99   -99    .6   -99   -99   -99   -99  30.8
   170   -99   -99   -99   -99   -99   -99   -99   -99   -99   -99    .5   -99   -99   -99   -99    31
   190   -99   -99   -99   -99   -99   -99   -99   -99   -99   -99    .5   -99   -99   -99   -99  25.5
   210   -99   -99   -99   -99   -99   -99   -99   -99   -99   -99   -99   -99   -99   -99   -99   -99

*ETKJ000004  Tulema,2005 CL       210  Shallow Root Std Kajima Andosol
@SITE        COUNTRY          LAT     LONG SCS FAMILY
 Kajima      Ethiopia          8.8   39.63 Andosol
@ SCOM  SALB  SLU1  SLDR  SLRO  SLNF  SLPF  SMHB  SMPX  SMKE
    BN   .13 11.04   .25    73     1     1 IB001 IB001 IB001
@  SLB  SLMH  SLLL  SDUL  SSAT  SRGF  SSKS  SBDM  SLOC  SLCL  SLSI  SLCF  SLNI  SLHW  SLHB  SCEC  SADC
     5   -99  .248  .406  .489     1   .23  1.25  1.91    34    30   -99    .1   6.8   -99  34.3   -99
    10   -99  .248  .406  .489     1   .23  1.25  1.91    34    30   -99    .1   6.8   -99  34.3   -99
    20   -99  .248  .406  .489     1   .23  1.25  1.91    34    30   -99    .1   6.8   -99  34.3   -99
    30   -99  .248  .406  .489  .607   .23  1.25  1.91    34    30   -99    .1   6.8   -99  34.3   -99
    60   -99  .248  .406  .489     0   .23  1.25  1.91    34    30   -99    .1   6.8   -99  34.3   -99
    90   -99  .248  .406  .489     0   .23  1.25  1.91    34    30   -99    .1   6.8   -99  34.3   -99
   150   -99  .248  .406  .489     0   .23  1.25  1.91    34    30   -99    .1   6.8   -99  34.3   -99
   210   -99  .248  .406  .489     0   .23  1.25  1.91    34    30   -99    .1   6.8   -99  34.3   -99

*ETMK000005  Araya, 2010 CL       210  Shallow Root Std Mekelle Cambisol
@SITE        COUNTRY          LAT     LONG SCS FAMILY
 Mekelle     Ethiopia        13.05    39.1 Cambisol
@ SCOM  SALB  SLU1  SLDR  SLRO  SLNF  SLPF  SMHB  SMPX  SMKE
    BN   .13     6   .25    81     1     1 IB001 IB001 IB001
@  SLB  SLMH  SLLL  SDUL  SSAT  SRGF  SSKS  SBDM  SLOC  SLCL  SLSI  SLCF  SLNI  SLHW  SLHB  SCEC  SADC
     5   -99   .14   .27   .46     1   .23  1.55  .718    34    30   -99   .12     7   -99   -99   -99
    10   -99   .14   .27   .46     1   .23  1.55  .718    34    30   -99   .12     7   -99   -99   -99
    20   -99   .14   .27    .5     1   .23  1.55    .6    34    30   -99   .06   6.9   -99   -99   -99
    30   -99   .22   .42   .52  .607   .23  1.45    .6    34    30   -99   .06   6.9   -99   -99   -99
    60   -99   .22   .42   .52     0   .23  1.45    .6    34    30   -99   .06   6.9   -99   -99   -99
    90   -99   .22   .42   .52     0   .23  1.45    .6    34    30   -99   .06   6.9   -99   -99   -99
   150   -99   .22   .42   .52     0   .23  1.45    .6    34    30   -99   .06   6.9   -99   -99   -99
   210   -99   .22   .42   .52     0   .23  1.45    .6    34    30   -99   .06   6.9   -99   -99   -99

*ETOD000002  Giday, 2012 CL       210  Standardized Vertisol in the Ofla District, Ethi
@SITE        COUNTRY          LAT     LONG SCS FAMILY
 Ofla Dist   Ethiopia         12.5   39.52 Vertisol
@ SCOM  SALB  SLU1  SLDR  SLRO  SLNF  SLPF  SMHB  SMPX  SMKE
     G   .13     6    .6    61     1     1 IB001 IB001 IB001
@  SLB  SLMH  SLLL  SDUL  SSAT  SRGF  SSKS  SBDM  SLOC  SLCL  SLSI  SLCF  SLNI  SLHW  SLHB  SCEC  SADC
     5   -99  .256  .438   .51     1   .23  1.18 2.552    32    35   -99   .23   6.3   -99  41.4   -99
    10   -99  .256  .438   .51     1   .23  1.18 2.552    32    35   -99   .23   6.3   -99  41.4   -99
    20   -99  .256  .438   .51     1   .23  1.18 2.552    32    35   -99   .23   6.3   -99  41.4   -99
    30   -99  .288  .402  .487  .607   .06  1.29  .058    52    25   -99   .06   7.5   -99  50.4   -99
    40   -99  .288  .402  .487  .497   .06  1.29  .058    52    25   -99   .06   7.5   -99  50.4   -99
    50   -99  .288  .402  .487  .407   .06  1.29  .058    52    25   -99   .06   7.5   -99  50.4   -99
    60   -99  .288  .402  .487  .333   .06  1.29  .058    52    25   -99   .06   7.5   -99  50.4   -99
    70   -99  .288  .402  .487  .273   .06  1.29  .058    52    25   -99   .06   7.5   -99  50.4   -99
    80   -99  .288  .402  .487  .223   .06  1.29  .058    52    25   -99   .06   7.5   -99  50.4   -99
    90   -99  .288  .402  .487  .183   .06  1.29  .058    52    25   -99   .06   7.5   -99  50.4   -99
   110   -99  .277  .385  .477  .135   .06  1.32  .029    50    23   -99   .03   8.2   -99  49.3   -99
   130   -99  .277  .385  .477  .091   .06  1.32  .029    50    23   -99   .03   8.2   -99  49.3   -99
   150   -99  .277  .385  .477  .061   .06  1.32  .029    50    23   -99   .03   8.2   -99  49.3   -99
   170   -99  .277  .385  .477  .041   .06  1.32  .029    50    23   -99   .03   8.2   -99  49.3   -99
   190   -99  .277  .385  .477  .027   .06  1.32  .029    50    23   -99   .03   8.2   -99  49.3   -99
   210   -99  .277  .385  .477  .018   .06  1.32  .029    50    23   -99   .03   8.2   -99  49.3   -99
@  SLB  SLPX  SLPT  SLPO CACO3  SLAL  SLFE  SLMN  SLBS  SLPA  SLPB  SLKE  SLMG  SLNA  SLSU  SLEC  SLCA
     5   -99   -99   -99   -99   -99   -99   -99   -99   -99   -99    .7   -99   -99   -99   -99  29.1
    10   -99   -99   -99   -99   -99   -99   -99   -99   -99   -99    .4   -99   -99   -99   -99  35.4
    20   -99   -99   -99   -99   -99   -99   -99   -99   -99   -99    .5   -99   -99   -99   -99  31.9
 
*ETUD000007  Tulema,2005 C        210  Shallow Root Std Ude 1 Vertisol
@SITE        COUNTRY          LAT     LONG SCS FAMILY
 Ude 1       Ethiopia          8.8   39.63 Vertisol
@ SCOM  SALB  SLU1  SLDR  SLRO  SLNF  SLPF  SMHB  SMPX  SMKE
    BL   .09 11.04   .05    73     1     1 IB001 IB001 IB001
@  SLB  SLMH  SLLL  SDUL  SSAT  SRGF  SSKS  SBDM  SLOC  SLCL  SLSI  SLCF  SLNI  SLHW  SLHB  SCEC  SADC
     5   -99  .373  .501  .515     1   .06  1.23  1.25  62.5  21.3   -99   .14   6.4   -99  43.1   -99
    10   -99  .373  .501  .515     1   .06  1.23  1.25  62.5  21.3   -99   .14   6.4   -99  43.1   -99
    20   -99  .373  .501  .515     1   .06  1.23  1.25  62.5  21.3   -99   .14   6.4   -99  43.1   -99
    30   -99  .373  .501  .515  .607   .06  1.23  1.25  62.5  21.3   -99   .14   6.4   -99  43.1   -99
    70   -99  .385  .493  .539     0   .06  1.25  1.25    65  26.3   -99   .14   6.4   -99  43.1   -99
    90   -99  .385  .501  .524     0   .06  1.23  1.25    65  18.8   -99   .14   6.4   -99  43.1   -99
   150   -99  .388  .497  .507     0   .06  1.24  1.25  65.5     7   -99   .14   6.4   -99  43.1   -99
   210   -99  .388  .497  .507     0   .06  1.24  1.25  65.5     7   -99   .14   6.4   -99  43.1   -99

*ETUD000008  Tulema,2005 C        210  Shallow Root Std Ude 2 Vertisol
@SITE        COUNTRY          LAT     LONG SCS FAMILY
 Ude 2       Ethiopia          8.8   39.63 Vertisol
@ SCOM  SALB  SLU1  SLDR  SLRO  SLNF  SLPF  SMHB  SMPX  SMKE
    BL   .09 11.04   .05    73     1     1 IB001 IB001 IB001
@  SLB  SLMH  SLLL  SDUL  SSAT  SRGF  SSKS  SBDM  SLOC  SLCL  SLSI  SLCF  SLNI  SLHW  SLHB  SCEC  SADC
     5   -99  .374    .5  .518     1   .06  1.23  1.32  62.5  21.3   -99   .12   6.5   -99  44.9   -99
    10   -99  .374    .5  .518     1   .06  1.23  1.32  62.5  21.3   -99   .12   6.5   -99  44.9   -99
    20   -99  .374    .5  .518     1   .06  1.23  1.32  62.5  21.3   -99   .12   6.5   -99  44.9   -99
    30   -99  .374    .5  .518  .607   .06  1.23  1.32  62.5  21.3   -99   .12   6.5   -99  44.9   -99
    70   -99  .387  .496  .542     0   .06  1.24  1.32    65  26.3   -99   .12   6.5   -99  44.9   -99
    90   -99  .387  .504  .527     0   .06  1.22  1.32    65  18.8   -99   .12   6.5   -99  44.9   -99
   150   -99  .389    .5  .506     0   .06  1.23  1.32  65.5     7   -99   .12   6.5   -99  44.9   -99
   210   -99  .389    .5  .506     0   .06  1.23  1.32  65.5     7   -99   .12   6.5   -99  44.9   -99
