*SOILS: General DSSAT Soil Input File
! DSSAT v4.7; 2018-12-11
!
! Ethiopia Soils
! Compiled by Kirsten Paff for Teff model
! Compiled by Mulugeta Demiss for CERES Teff model
!
*ETGA000011  Tulema,2007 C        210  Shallow Root Std Gare Arera Nitisol
@SITE        COUNTRY          LAT     LONG SCS FAMILY
 Gare Arera  Ethiopia        9.05     38.5 Nitisol
@ SCOM  SALB  SLU1  SLDR  SLRO  SLNF  SLPF  SMHB  SMPX  SMKE
    BN   .13 11.04   .25    73     1     1 IB001 IB001 IB001
@  SLB  SLMH  SLLL  SDUL  SSAT  SRGF  SSKS  SBDM  SLOC  SLCL  SLSI  SLCF  SLNI  SLHW  SLHB  SCEC  SADC
     5   -99  .371  .446   .56     1   .06  1.33  3.77  48.4  37.8   -99   .21   4.9   -99   -99   -99
    10   -99  .371  .434   .56     1   .06  1.36  3.77  48.4  37.8   -99   .21   4.9   -99   -99   -99
    20   -99  .371  .446   .56     1   .06  1.33  3.77  48.4  37.8   -99   .21   4.9   -99   -99   -99
    30   -99  .371  .452   .54  .607   .06  1.33  2.88  53.4  32.2   -99   .15   4.8   -99   -99   -99
    40   -99  .371  .441   .54     0   .06  1.36  2.88  53.4  32.2   -99   .15   4.8   -99   -99   -99
    60   -99  .337  .457  .517     0   .06  1.33   2.2  50.3  32.2   -99   .14   5.3   -99   -99   -99
    70   -99  .337  .446  .517     0   .06  1.36   2.2  50.3  32.2   -99   .14   5.3   -99   -99   -99
    90   -99  .337  .457  .517     0   .06  1.33   2.2  50.3  32.2   -99   .14   5.3   -99   -99   -99
   110   -99  .337  .446  .517     0   .06  1.36   2.2  50.3  32.2   -99   .14   5.3   -99   -99   -99
   150   -99  .337  .457  .517     0   .06  1.33   2.2  50.3  32.2   -99   .14   5.3   -99   -99   -99
   170   -99  .337  .446  .517     0   .06  1.36   2.2  50.3  32.2   -99   .14   5.3   -99   -99   -99
   210   -99  .337  .457  .517     0   .06  1.33   2.2  50.3  32.2   -99   .14   5.3   -99   -99   -99

*ET04197341    ETH    ClayLoam   200    ISRIC soilgrids + HC27                                                                                                                                         
@SITE        COUNTRY          LAT     LONG SCS Family                                                                                                                                                  
 -99              ET        9.042   38.458     HC_GEN0011                                                                                                                                              
@ SCOM  SALB  SLU1  SLDR  SLRO  SLNF  SLPF  SMHB  SMPX  SMKE                                                                                                                                           
    BK  0.10  6.00  0.50 75.00  1.00  1.00 SA001 SA001 SA001                                                                                                                                           
@  SLB  SLMH  SLLL  SDUL  SSAT  SRGF  SSKS  SBDM  SLOC  SLCL  SLSI  SLCF  SLNI  SLHW  SLHB  SCEC  SADC                                                                                                 
     5 A     0.233 0.355 0.436  1.00  0.14  1.08  1.40 38.96 22.53 -99.0  0.12  6.22 -99.0  34.6 -99.0                                                                                                 
    15 A     0.244 0.367 0.442  0.85  0.11  1.10  0.87 40.89 21.77 -99.0  0.09  6.29 -99.0  30.3 -99.0                                                                                                 
    30 AB    0.259 0.383 0.451  0.70  0.08  1.13  0.69 43.46 20.73 -99.0  0.07  6.38 -99.0  29.4 -99.0                                                                                                 
    60 BA    0.271 0.396 0.459  0.50  0.06  1.18  0.63 45.62 19.70 -99.0  0.06  6.50 -99.0  30.7 -99.0                                                                                                 
   100 B     0.272 0.396 0.458  0.38  0.06  1.24  0.61 45.65 19.05 -99.0  0.05  6.64 -99.0  30.9 -99.0                                                                                                 
   200 BC    0.263 0.386 0.451  0.05  0.07  1.30  0.60 44.13 18.83 -99.0  0.05  6.82 -99.0  30.8 -99.0

*ET04197342    ETH    ClayLoam   200    ISRIC soilgrids + HC27                                                                                                                                         
@SITE        COUNTRY          LAT     LONG SCS Family                                                                                                                                                  
 -99              ET        9.042   38.542     HC_GEN0011                                                                                                                                              
@ SCOM  SALB  SLU1  SLDR  SLRO  SLNF  SLPF  SMHB  SMPX  SMKE                                                                                                                                           
    BK  0.10  6.00  0.50 75.00  1.00  1.00 SA001 SA001 SA001                                                                                                                                           
@  SLB  SLMH  SLLL  SDUL  SSAT  SRGF  SSKS  SBDM  SLOC  SLCL  SLSI  SLCF  SLNI  SLHW  SLHB  SCEC  SADC                                                                                                 
     5 A     0.209 0.329 0.423  1.00  0.23  1.11  1.40 34.92 23.27 -99.0  0.12  5.91 -99.0  29.0 -99.0                                                                                                 
    15 A     0.221 0.342 0.429  0.85  0.18  1.13  0.87 36.90 22.54 -99.0  0.09  5.97 -99.0  25.5 -99.0                                                                                                 
    30 AB    0.236 0.358 0.436  0.70  0.13  1.16  0.69 39.47 21.46 -99.0  0.07  6.07 -99.0  24.7 -99.0                                                                                                 
    60 BA    0.250 0.372 0.444  0.50  0.10  1.21  0.63 41.82 20.40 -99.0  0.06  6.18 -99.0  25.8 -99.0                                                                                                 
   100 B     0.249 0.371 0.443  0.38  0.10  1.27  0.61 41.73 19.85 -99.0  0.05  6.33 -99.0  25.9 -99.0                                                                                                 
   200 BC    0.240 0.360 0.436  0.05  0.12  1.32  0.60 40.16 19.51 -99.0  0.05  6.51 -99.0  25.9 -99.0

*ET04085011    ETH        CLAY   200    ISRIC soilgrids + HC27                                                                                                                                         
@SITE        COUNTRY          LAT     LONG SCS Family                                                                                                                                                  
 -99              ET       11.208   37.625     HC_GEN0002                                                                                                                                              
@ SCOM  SALB  SLU1  SLDR  SLRO  SLNF  SLPF  SMHB  SMPX  SMKE                                                                                                                                           
    BK  0.05  8.00  0.20 85.00  1.00  1.00 SA001 SA001 SA001                                                                                                                                           
@  SLB  SLMH  SLLL  SDUL  SSAT  SRGF  SSKS  SBDM  SLOC  SLCL  SLSI  SLCF  SLNI  SLHW  SLHB  SCEC  SADC                                                                                                 
     5 A     0.253 0.387 0.462  1.00  0.11  1.17  1.40 42.61 31.15 -99.0  0.12  7.12 -99.0  58.8 -99.0                                                                                                 
    15 A     0.264 0.397 0.469  0.82  0.10  1.18  0.87 44.39 30.37 -99.0  0.09  7.19 -99.0  51.5 -99.0                                                                                                 
    30 AB    0.278 0.410 0.479  0.65  0.08  1.21  0.69 46.92 29.33 -99.0  0.07  7.28 -99.0  49.9 -99.0                                                                                                 
    60 BA    0.290 0.421 0.487  0.38  0.07  1.27  0.63 49.10 28.22 -99.0  0.06  7.40 -99.0  52.2 -99.0                                                                                                 
   100 B     0.291 0.421 0.487  0.19  0.07  1.33  0.61 49.16 27.50 -99.0  0.05  7.53 -99.0  52.5 -99.0                                                                                                 
   200 BC    0.284 0.414 0.480  0.05  0.07  1.38  0.60 47.87 27.18 -99.0  0.05  7.71 -99.0  52.4 -99.0

*ETGA000111  Eyasu,2017         210  Shallow Root Std Gare Arera Nitisol
@SITE        COUNTRY          LAT     LONG SCS FAMILY
 Gare Arera  Ethiopia         9.05    38.5 Nitisol 
@ SCOM  SALB  SLU1  SLDR  SLRO  SLNF  SLPF  SMHB  SMPX  SMKE
    BN   .13 11.04   .25    73     1     1 IB001 IB001 IB001
@  SLB  SLMH  SLLL  SDUL  SSAT  SRGF  SSKS  SBDM  SLOC  SLCL  SLSI  SLCF  SLNI  SLHW  SLHB  SCEC  SADC
     5   -99  .24   .45    .48     1   .06  1.12  3.60  63.0  21.0   -99   .21   4.9   -99   -99   -99
    10   -99  .24   .45    .48     1   .06  1.12  3.60  63.0  21.0   -99   .21   4.9   -99   -99   -99
    20   -99  .24   .45    .48     1   .06  1.12  3.60  63.0  21.0   -99   .21   4.9   -99   -99   -99
    42   -99  .24   .45    .46     1   .06  1.10  2.00  67.0  21.0   -99   .21   4.9   -99   -99   -99
    90   -99  .22   .43    .45   0.5   .06  1.10  1.10  70.0  18.0   -99   .21   4.9   -99   -99   -99
   200   -99  .22   .43    .45   0.1   .06  1.10  1.10  72.0  20.0   -99   .15   4.8   -99   -99   -99

*ETGK000161  Eyasu,2017         210  Shallow Root Std Gonji Area Nitisol
@SITE        COUNTRY          LAT     LONG SCS FAMILY
 Gonji Area  Ethiopia      11.208   37.625 Nitisol 
@ SCOM  SALB  SLU1  SLDR  SLRO  SLNF  SLPF  SMHB  SMPX  SMKE
    BN   .13 11.04   .25    73     1   0.9 IB001 IB001 IB001
@  SLB  SLMH  SLLL  SDUL  SSAT  SRGF  SSKS  SBDM  SLOC  SLCL  SLSI  SLCF  SLNI  SLHW  SLHB  SCEC  SADC
     5   -99  .25   .51    .55     1   .06  1.12  3.60  63.0  21.0   -99   .21   4.9   -99   -99   -99    
    10   -99  .25   .51    .55     1   .06  1.12  3.60  63.0  21.0   -99   .21   4.9   -99   -99   -99
    20   -99  .25   .51    .55     1   .06  1.12  3.60  63.0  21.0   -99   .21   4.9   -99   -99   -99
    42   -99  .25   .51    .55     1   .06  1.10  2.00  67.0  21.0   -99   .21   4.9   -99   -99   -99
    90   -99  .21   .46    .53    .6   .06  1.10  1.10  70.0  18.0   -99   .21   4.9   -99   -99   -99
   100   -99  .21   .46    .53     0   .06  1.10  1.10  72.0  20.0   -99   .15   4.8   -99   -99   -99
   150   -99  .20   .43    .51     0   .06  1.10  1.10  72.0  20.0   -99   .15   4.8   -99   -99   -99
   200   -99  .20   .43    .51     0   .06  1.10  1.10  72.0  20.0   -99   .15   4.8   -99   -99   -99 

*ETGA000012  Tulema,2007 C        210  Shallow Root Std Gare Arera Vertisol
@SITE        COUNTRY          LAT     LONG SCS FAMILY
 Gare Arera  Ethiopia        9.05     38.5 Vertisol
@ SCOM  SALB  SLU1  SLDR  SLRO  SLNF  SLPF  SMHB  SMPX  SMKE
    BL   .09 11.52   .05    73     1     1 IB001 IB001 IB001
@  SLB  SLMH  SLLL  SDUL  SSAT  SRGF  SSKS  SBDM  SLOC  SLCL  SLSI  SLCF  SLNI  SLHW  SLHB  SCEC  SADC
     5   -99  .376  .532  .554     1   .06  1.12  2.59  55.8  25.4   -99   .19   5.8   -99   -99   -99
    10   -99  .376  .532  .554     1   .06  1.12  2.59  55.8  25.4   -99   .19   5.8   -99   -99   -99
    20   -99  .376  .532  .554     1   .06  1.12  2.59  55.8  25.4   -99   .19   5.8   -99   -99   -99
    30   -99  .365  .517  .525  .607   .06  1.17  2.05  56.7  22.1   -99   .14   5.8   -99   -99   -99
    40   -99  .365  .517  .525     0   .06  1.17  2.05  56.7  22.1   -99   .14   5.8   -99   -99   -99
    80   -99  .372  .524  .535     0   .06  1.15  2.09  57.9  22.5   -99   .15   5.7   -99   -99   -99
   150   -99  .372  .524  .535     0   .06  1.15  2.09  57.9  22.5   -99   .15   5.7   -99   -99   -99
   210   -99  .372  .524  .535     0   .06  1.15  2.09  57.9  22.5   -99   .15   5.7   -99   -99   -99

*ETGA000212  Tulema,2007 C        210  Shallow Root Std Gare Arera Vertisol
@SITE        COUNTRY          LAT     LONG SCS FAMILY
 Gare Arera  Ethiopia         9.05    38.5 Vertisol
@ SCOM  SALB  SLU1  SLDR  SLRO  SLNF  SLPF  SMHB  SMPX  SMKE
    BL   .09 11.52   .05    73     1     1 IB001 IB001 IB001
@  SLB  SLMH  SLLL  SDUL  SSAT  SRGF  SSKS  SBDM  SLOC  SLCL  SLSI  SLCF  SLNI  SLHW  SLHB  SCEC  SADC
     5   -99   .23   .53   .55     1   .06  1.12  2.59  55.8  25.4   -99   .19   5.8   -99   -99   -99
    10   -99   .23   .53   .55     1   .06  1.12  2.59  55.8  25.4   -99   .19   5.8   -99   -99   -99
    20   -99   .33   .53   .55     1   .06  1.12  2.59  55.8  25.4   -99   .19   5.8   -99   -99   -99
    30   -99   .22   .52   .53  .607   .06  1.17  2.05  56.7  22.1   -99   .14   5.8   -99   -99   -99
    40   -99   .22   .52   .53     0   .06  1.17  2.05  56.7  22.1   -99   .14   5.8   -99   -99   -99
    80   -99   .22   .52   .53     0   .06  1.15  2.09  57.9  22.5   -99   .15   5.7   -99   -99   -99
   150   -99   .21   .50   .50     0   .06  1.31  2.05  65.5   7.0   -99   .04   6.6   -99  47.8   -99
   200   -99   .21   .48   .50     0   .06  1.31  2.05  65.5   7.0   -99   .04   6.6   -99  47.8   -99

*ETGA000112  Getu2012    C        210  Shallow Root Std Jamma Vertisol with Updated LL,DUL, and SAT
@SITE        COUNTRY          LAT     LONG SCS FAMILY
 Gera       Ethiopia         9.05     38.5 Vertisol
@ SCOM  SALB  SLU1  SLDR  SLRO  SLNF  SLPF  SMHB  SMPX  SMKE
   -99    .1     6   .25    73     1     1 IB001 IB001 IB001
@  SLB  SLMH  SLLL  SDUL  SSAT  SRGF  SSKS  SBDM  SLOC  SLCL  SLSI  SLCF  SLNI  SLHW  SLHB  SCEC  SADC
     5   -99   .26   .51   .52     1   .06  1.14  2.59  62.5  21.3   -99    .1   6.5   -99  52.0   -99
    20   -99   .26   .51   .52     1   .06  1.14  2.59  62.5  21.3   -99    .1   6.5   -99  52.0   -99
    30   -99   .26   .51   .52   0.8   .06  1.14  2.59  62.5  21.3   -99    .1   6.5   -99  52.0   -99
    70   -99   .26   .51   .52   0.6   .06  1.14  2.59  65.0  26.3   -99    .1   6.5   -99  53.0   -99
   100   -99   .26   .51   .52     0   .06  1.21  2.59  65.0  18.8   -99    .1   6.5   -99  54.2   -99
   120   -99   .21   .50   .51     0   .06  1.31  2.05  65.5   7.0   -99   .04   6.6   -99  47.8   -99
   150   -99   .21   .50   .51     0   .06  1.31  2.05  65.5   7.0   -99   .04   6.6   -99  47.8   -99
   200   -99   .21   .48   .50     0   .06  1.31  2.05  65.5   7.0   -99   .04   6.6   -99  47.8   -99 
@  SLB  SLPX  SLPT  SLPO CACO3  SLAL  SLFE  SLMN  SLBS  SLPA  SLPB  SLKE  SLMG  SLNA  SLSU  SLEC  SLCA
    30   -99   -99   -99   -99   -99   -99   -99   -99   -99   -99    .6   -99   -99   -99   -99  30.8
    70   -99   -99   -99   -99   -99   -99   -99   -99   -99   -99    .7   -99   -99   -99   -99  30.6
   100   -99   -99   -99   -99   -99   -99   -99   -99   -99   -99    .5   -99   -99   -99   -99  25.5
   120   -99   -99   -99   -99   -99   -99   -99   -99   -99   -99    .7   -99   -99   -99   -99  30.6
   150   -99   -99   -99   -99   -99   -99   -99   -99   -99   -99    .7   -99   -99   -99   -99  30.6
   200   -99   -99   -99   -99   -99   -99   -99   -99   -99   -99    .7   -99   -99   -99   -99  30.6

*ETJD000006  Getu2012    C        210  Shallow Root Std Jamma Vertisol with Updated LL,DUL, and SAT
@SITE        COUNTRY          LAT     LONG SCS FAMILY
 Jamma       Ethiopia       10.45    39.25 Vertisol
@ SCOM  SALB  SLU1  SLDR  SLRO  SLNF  SLPF  SMHB  SMPX  SMKE
   -99    .1     6   .25    73     1     1 IB001 IB001 IB001
@  SLB  SLMH  SLLL  SDUL  SSAT  SRGF  SSKS  SBDM  SLOC  SLCL  SLSI  SLCF  SLNI  SLHW  SLHB  SCEC  SADC
     5   -99   .28   .51   .54     1   .06  1.14 1.017  62.5  21.3   -99    .1   6.5   -99  50.8   -99
    10   -99   .28   .51   .54     1   .06  1.14 1.017  62.5  21.3   -99    .1   6.5   -99  50.8   -99
    20   -99   .28   .51   .54     1   .06  1.14 1.017  62.5  21.3   -99    .1   6.5   -99  50.8   -99
    30   -99   .28   .51   .54   0.5   .06  1.14 1.017  62.5  21.3   -99    .1   6.5   -99  50.8   -99
    40   -99   .26   .48   .51   0.3   .06  1.21  .901    65  26.3   -99   .06   6.5   -99    53   -99
    50   -99   .26   .48   .51   0.1   .06  1.21  .901    65  26.3   -99   .06   6.5   -99    53   -99
    60   -99   .26   .48   .51     0   .06  1.21  .901    65  26.3   -99   .06   6.5   -99    53   -99
    70   -99   .26   .48   .51     0   .06  1.21  .901    65  26.3   -99   .06   6.5   -99    53   -99
    80   -99   .21   .45   .48     0   .06  1.31  .872    65  18.8   -99   .06   6.6   -99  55.9   -99
    90   -99   .21   .45   .48     0   .06  1.31  .872    65  18.8   -99   .06   6.6   -99  55.9   -99
   110   -99   .21   .45   .48     0   .06  1.31  .669  65.5     7   -99   .04   6.6   -99  47.8   -99
   130   -99   .21   .45   .48     0   .06  1.31  .669  65.5     7   -99   .04   6.6   -99  47.8   -99
   150   -99   .21   .45   .48     0   .06  1.31  .669  65.5     7   -99   .04   6.6   -99  47.8   -99
   170   -99   .21   .45   .48     0   .06  1.31  .669  65.5     7   -99   .04   6.6   -99  47.8   -99
   190   -99   .21   .45   .48     0   .06  1.31  .669  65.5     7   -99   .04   6.6   -99  47.8   -99
   210   -99   .21   .45   .48     0   .06  1.31  .669  65.5     7   -99   .04   6.6   -99  47.8   -99
@  SLB  SLPX  SLPT  SLPO CACO3  SLAL  SLFE  SLMN  SLBS  SLPA  SLPB  SLKE  SLMG  SLNA  SLSU  SLEC  SLCA
     5   -99   -99   -99   -99   -99   -99   -99   -99   -99   -99    .7   -99   -99   -99   -99  30.6
    10   -99   -99   -99   -99   -99   -99   -99   -99   -99   -99    .6   -99   -99   -99   -99  30.8
    20   -99   -99   -99   -99   -99   -99   -99   -99   -99   -99    .5   -99   -99   -99   -99  25.5
    30   -99   -99   -99   -99   -99   -99   -99   -99   -99   -99    .7   -99   -99   -99   -99  30.6
    40   -99   -99   -99   -99   -99   -99   -99   -99   -99   -99    .6   -99   -99   -99   -99  30.8
    50   -99   -99   -99   -99   -99   -99   -99   -99   -99   -99    .5   -99   -99   -99   -99    31
    60   -99   -99   -99   -99   -99   -99   -99   -99   -99   -99    .5   -99   -99   -99   -99  25.5
    70   -99   -99   -99   -99   -99   -99   -99   -99   -99   -99    .7   -99   -99   -99   -99  30.6
    80   -99   -99   -99   -99   -99   -99   -99   -99   -99   -99    .6   -99   -99   -99   -99  30.8
    90   -99   -99   -99   -99   -99   -99   -99   -99   -99   -99    .5   -99   -99   -99   -99    31
   110   -99   -99   -99   -99   -99   -99   -99   -99   -99   -99    .5   -99   -99   -99   -99  25.5
   130   -99   -99   -99   -99   -99   -99   -99   -99   -99   -99    .7   -99   -99   -99   -99  30.6
   150   -99   -99   -99   -99   -99   -99   -99   -99   -99   -99    .6   -99   -99   -99   -99  30.8
   170   -99   -99   -99   -99   -99   -99   -99   -99   -99   -99    .5   -99   -99   -99   -99    31
   190   -99   -99   -99   -99   -99   -99   -99   -99   -99   -99    .5   -99   -99   -99   -99  25.5
   210   -99   -99   -99   -99   -99   -99   -99   -99   -99   -99   -99   -99   -99   -99   -99   -99

*ETJD000016  Getu2012    C        210  Shallow Root Std Jamma Vertisol with Updated LL,DUL, and SAT
@SITE        COUNTRY          LAT     LONG SCS FAMILY
 Jamma       Ethiopia        10.45   39.25 Vertisol
@ SCOM  SALB  SLU1  SLDR  SLRO  SLNF  SLPF  SMHB  SMPX  SMKE
   -99    .1     6   .25    73     1     1 IB001 IB001 IB001
@  SLB  SLMH  SLLL  SDUL  SSAT  SRGF  SSKS  SBDM  SLOC  SLCL  SLSI  SLCF  SLNI  SLHW  SLHB  SCEC  SADC
     5   -99   .24   .51   .54     1   .06  1.14 1.017  62.5  21.3   -99    .1   6.5   -99  50.8   -99
    10   -99   .24   .51   .54     1   .06  1.14 1.017  62.5  21.3   -99    .1   6.5   -99  50.8   -99
    20   -99   .24   .51   .54     1   .06  1.14 1.017  62.5  21.3   -99    .1   6.5   -99  50.8   -99
    30   -99   .24   .51   .54  .607   .06  1.14 1.017  62.5  21.3   -99    .1   6.5   -99  50.8   -99
    40   -99   .24   .48   .51   0.4   .06  1.21  .901    65  26.3   -99   .06   6.5   -99    53   -99
    50   -99   .24   .48   .51   0.3   .06  1.21  .901    65  26.3   -99   .06   6.5   -99    53   -99
    60   -99   .24   .48   .51   0.3   .06  1.21  .901    65  26.3   -99   .06   6.5   -99    53   -99
    70   -99   .24   .48   .51   0.2   .06  1.21  .901    65  26.3   -99   .06   6.5   -99    53   -99
    80   -99   .21   .45   .48   0.1   .06  1.31  .872    65  18.8   -99   .06   6.6   -99  55.9   -99
    90   -99   .21   .45   .48   0.1   .06  1.31  .872    65  18.8   -99   .06   6.6   -99  55.9   -99
   110   -99   .21   .45   .48     0   .06  1.31  .669  65.5     7   -99   .04   6.6   -99  47.8   -99
   130   -99   .21   .45   .48     0   .06  1.31  .669  65.5     7   -99   .04   6.6   -99  47.8   -99
   150   -99   .21   .45   .48     0   .06  1.31  .669  65.5     7   -99   .04   6.6   -99  47.8   -99
   170   -99   .21   .45   .48     0   .06  1.31  .669  65.5     7   -99   .04   6.6   -99  47.8   -99
   190   -99   .21   .45   .48     0   .06  1.31  .669  65.5     7   -99   .04   6.6   -99  47.8   -99
   210   -99   .21   .45   .48     0   .06  1.31  .669  65.5     7   -99   .04   6.6   -99  47.8   -99
@  SLB  SLPX  SLPT  SLPO CACO3  SLAL  SLFE  SLMN  SLBS  SLPA  SLPB  SLKE  SLMG  SLNA  SLSU  SLEC  SLCA
     5   -99   -99   -99   -99   -99   -99   -99   -99   -99   -99    .7   -99   -99   -99   -99  30.6
    10   -99   -99   -99   -99   -99   -99   -99   -99   -99   -99    .6   -99   -99   -99   -99  30.8
    20   -99   -99   -99   -99   -99   -99   -99   -99   -99   -99    .5   -99   -99   -99   -99  25.5
    30   -99   -99   -99   -99   -99   -99   -99   -99   -99   -99    .7   -99   -99   -99   -99  30.6
    40   -99   -99   -99   -99   -99   -99   -99   -99   -99   -99    .6   -99   -99   -99   -99  30.8
    50   -99   -99   -99   -99   -99   -99   -99   -99   -99   -99    .5   -99   -99   -99   -99    31
    60   -99   -99   -99   -99   -99   -99   -99   -99   -99   -99    .5   -99   -99   -99   -99  25.5
    70   -99   -99   -99   -99   -99   -99   -99   -99   -99   -99    .7   -99   -99   -99   -99  30.6
    80   -99   -99   -99   -99   -99   -99   -99   -99   -99   -99    .6   -99   -99   -99   -99  30.8
    90   -99   -99   -99   -99   -99   -99   -99   -99   -99   -99    .5   -99   -99   -99   -99    31
   110   -99   -99   -99   -99   -99   -99   -99   -99   -99   -99    .5   -99   -99   -99   -99  25.5
   130   -99   -99   -99   -99   -99   -99   -99   -99   -99   -99    .7   -99   -99   -99   -99  30.6
   150   -99   -99   -99   -99   -99   -99   -99   -99   -99   -99    .6   -99   -99   -99   -99  30.8
   170   -99   -99   -99   -99   -99   -99   -99   -99   -99   -99    .5   -99   -99   -99   -99    31
   190   -99   -99   -99   -99   -99   -99   -99   -99   -99   -99    .5   -99   -99   -99   -99  25.5
   210   -99   -99   -99   -99   -99   -99   -99   -99   -99   -99   -99   -99   -99   -99   -99   -99

*ETJD000116  Getu2012    C        210  Shallow Root Std Jamma Vertisol with Updated LL,DUL, and SAT
@SITE        COUNTRY          LAT     LONG SCS FAMILY
 Jamma       Ethiopia        10.45   39.25 Vertisol
@ SCOM  SALB  SLU1  SLDR  SLRO  SLNF  SLPF  SMHB  SMPX  SMKE
   -99    .1     6   .25    73     1   0.8 IB001 IB001 IB001
@  SLB  SLMH  SLLL  SDUL  SSAT  SRGF  SSKS  SBDM  SLOC  SLCL  SLSI  SLCF  SLNI  SLHW  SLHB  SCEC  SADC
     5   -99   .26   .51   .54     1   .06  1.14 1.017  62.5  21.3   -99    .1   6.5   -99  52.0   -99     
    20   -99   .26   .51   .54     1   .06  1.14 1.017  62.5  21.3   -99    .1   6.5   -99  52.0   -99
    30   -99   .26   .51   .54   0.8   .06  1.14 1.017  62.5  21.3   -99    .1   6.5   -99  52.0   -99
    70   -99   .26   .51   .54    .6   .06  1.14 1.017  65.0  26.3   -99    .1   6.5   -99  53.0   -99
   100   -99   .21   .48   .51    .0   .06  1.21 1.017  65.0  18.8   -99    .1   6.5   -99  54.2   -99
   120   -99   .21   .48   .51     0   .06  1.31  .669  65.5   7.0   -99   .04   6.6   -99  47.8   -99
   150   -99   .21   .48   .51     0   .06  1.31  .669  65.5   7.0   -99   .04   6.6   -99  47.8   -99
   200   -99   .21   .48   .51     0   .06  1.31  .669  65.5   7.0   -99   .04   6.6   -99  47.8   -99  
@  SLB  SLPX  SLPT  SLPO CACO3  SLAL  SLFE  SLMN  SLBS  SLPA  SLPB  SLKE  SLMG  SLNA  SLSU  SLEC  SLCA
    30   -99   -99   -99   -99   -99   -99   -99   -99   -99   -99    .6   -99   -99   -99   -99  30.8
    70   -99   -99   -99   -99   -99   -99   -99   -99   -99   -99    .7   -99   -99   -99   -99  30.6
   100   -99   -99   -99   -99   -99   -99   -99   -99   -99   -99    .5   -99   -99   -99   -99  25.5
   120   -99   -99   -99   -99   -99   -99   -99   -99   -99   -99    .7   -99   -99   -99   -99  30.6
   150   -99   -99   -99   -99   -99   -99   -99   -99   -99   -99    .7   -99   -99   -99   -99  30.6
   200   -99   -99   -99   -99   -99   -99   -99   -99   -99   -99    .7   -99   -99   -99   -99  30.6

*ETKJ000004  Tulema,2005 CL       210  Shallow Root Std Kajima Andosol
@SITE        COUNTRY          LAT     LONG SCS FAMILY
 Kajima      Ethiopia         8.8    39.63 Andosol
@ SCOM  SALB  SLU1  SLDR  SLRO  SLNF  SLPF  SMHB  SMPX  SMKE
    BN   .13 11.04   .25    73     1     1 IB001 IB001 IB001
@  SLB  SLMH  SLLL  SDUL  SSAT  SRGF  SSKS  SBDM  SLOC  SLCL  SLSI  SLCF  SLNI  SLHW  SLHB  SCEC  SADC
     5   -99  .248  .406  .489     1   .23  1.25  1.91    34    30   -99    .1   6.8   -99  34.3   -99
    10   -99  .248  .406  .489     1   .23  1.25  1.91    34    30   -99    .1   6.8   -99  34.3   -99
    20   -99  .248  .406  .489     1   .23  1.25  1.91    34    30   -99    .1   6.8   -99  34.3   -99
    30   -99  .248  .406  .489  .607   .23  1.25  1.91    34    30   -99    .1   6.8   -99  34.3   -99
    60   -99  .248  .406  .489     0   .23  1.25  1.91    34    30   -99    .1   6.8   -99  34.3   -99
    90   -99  .248  .406  .489     0   .23  1.25  1.91    34    30   -99    .1   6.8   -99  34.3   -99
   150   -99  .248  .406  .489     0   .23  1.25  1.91    34    30   -99    .1   6.8   -99  34.3   -99
   210   -99  .248  .406  .489     0   .23  1.25  1.91    34    30   -99    .1   6.8   -99  34.3   -99

*ETMK000005  Araya, 2010 CL       210  Shallow Root Std Mekelle Cambisol
@SITE        COUNTRY          LAT     LONG SCS FAMILY
 Mekelle     Ethiopia       13.05     39.1 Cambisol
@ SCOM  SALB  SLU1  SLDR  SLRO  SLNF  SLPF  SMHB  SMPX  SMKE
    BN   .13     6   .25    81     1     1 IB001 IB001 IB001
@  SLB  SLMH  SLLL  SDUL  SSAT  SRGF  SSKS  SBDM  SLOC  SLCL  SLSI  SLCF  SLNI  SLHW  SLHB  SCEC  SADC
     5   -99   .14   .27   .46     1   .23  1.55  .718    34    30   -99   .12     7   -99   -99   -99
    10   -99   .14   .27   .46     1   .23  1.55  .718    34    30   -99   .12     7   -99   -99   -99
    20   -99   .14   .27    .5     1   .23  1.55    .6    34    30   -99   .06   6.9   -99   -99   -99
    30   -99   .22   .42   .52  .607   .23  1.45    .6    34    30   -99   .06   6.9   -99   -99   -99
    60   -99   .22   .42   .52     0   .23  1.45    .6    34    30   -99   .06   6.9   -99   -99   -99
    90   -99   .22   .42   .52     0   .23  1.45    .6    34    30   -99   .06   6.9   -99   -99   -99
   150   -99   .22   .42   .52     0   .23  1.45    .6    34    30   -99   .06   6.9   -99   -99   -99
   210   -99   .22   .42   .52     0   .23  1.45    .6    34    30   -99   .06   6.9   -99   -99   -99

*ETOD000002  Giday, 2012 CL       210  Standardized Vertisol in the Ofla District, Ethi
@SITE        COUNTRY          LAT     LONG SCS FAMILY
 Ofla Dist   Ethiopia        12.5    39.52 Vertisol
@ SCOM  SALB  SLU1  SLDR  SLRO  SLNF  SLPF  SMHB  SMPX  SMKE
     G   .13     6    .6    61     1     1 IB001 IB001 IB001
@  SLB  SLMH  SLLL  SDUL  SSAT  SRGF  SSKS  SBDM  SLOC  SLCL  SLSI  SLCF  SLNI  SLHW  SLHB  SCEC  SADC
     5   -99  .256  .438   .51     1   .23  1.18 2.552    32    35   -99   .23   6.3   -99  41.4   -99
    10   -99  .256  .438   .51     1   .23  1.18 2.552    32    35   -99   .23   6.3   -99  41.4   -99
    20   -99  .256  .438   .51     1   .23  1.18 2.552    32    35   -99   .23   6.3   -99  41.4   -99
    30   -99  .288  .402  .487  .607   .06  1.29  .058    52    25   -99   .06   7.5   -99  50.4   -99
    40   -99  .288  .402  .487  .497   .06  1.29  .058    52    25   -99   .06   7.5   -99  50.4   -99
    50   -99  .288  .402  .487  .407   .06  1.29  .058    52    25   -99   .06   7.5   -99  50.4   -99
    60   -99  .288  .402  .487  .333   .06  1.29  .058    52    25   -99   .06   7.5   -99  50.4   -99
    70   -99  .288  .402  .487  .273   .06  1.29  .058    52    25   -99   .06   7.5   -99  50.4   -99
    80   -99  .288  .402  .487  .223   .06  1.29  .058    52    25   -99   .06   7.5   -99  50.4   -99
    90   -99  .288  .402  .487  .183   .06  1.29  .058    52    25   -99   .06   7.5   -99  50.4   -99
   110   -99  .277  .385  .477  .135   .06  1.32  .029    50    23   -99   .03   8.2   -99  49.3   -99
   130   -99  .277  .385  .477  .091   .06  1.32  .029    50    23   -99   .03   8.2   -99  49.3   -99
   150   -99  .277  .385  .477  .061   .06  1.32  .029    50    23   -99   .03   8.2   -99  49.3   -99
   170   -99  .277  .385  .477  .041   .06  1.32  .029    50    23   -99   .03   8.2   -99  49.3   -99
   190   -99  .277  .385  .477  .027   .06  1.32  .029    50    23   -99   .03   8.2   -99  49.3   -99
   210   -99  .277  .385  .477  .018   .06  1.32  .029    50    23   -99   .03   8.2   -99  49.3   -99