*SOILS : Kazakhstan soil data from ISRIC soilgrids + SLOC from HC27 

*KZ02422280    KAZ        Loam   200    Almaty                                                        
@SITE        COUNTRY          LAT     LONG SCS Family                                                 
 -99              KZ       43.292   76.709    HC_GEN0011                                             
@ SCOM  SALB  SLU1  SLDR  SLRO  SLNF  SLPF  SMHB  SMPX  SMKE                                          
    BK  0.10  6.00  0.50 75.00  1.00  1.00 SA001 SA001 SA001                                          
@  SLB  SLMH  SLLL  SDUL  SSAT  SRGF  SSKS  SBDM  SLOC  SLCL  SLSI  SLCF  SLNI  SLHW  SLHB  SCEC  SADC
     5 A     0.113 0.259 0.395  1.00  0.75  1.32  1.58 18.28 48.65 -99.0  0.12  7.91 -99.0  21.1 -99.0
    15 A     0.124 0.271 0.399  0.85  0.63  1.34  1.34 20.15 47.88 -99.0  0.09  7.98 -99.0  18.5 -99.0
    30 AB    0.137 0.284 0.405  0.70  0.51  1.37  1.02 22.53 46.91 -99.0  0.07  8.08 -99.0  17.9 -99.0
    60 BA    0.151 0.298 0.411  0.50  0.41  1.42  0.66 24.94 45.65 -99.0  0.06  8.19 -99.0  18.8 -99.0
   100 B     0.151 0.297 0.411  0.38  0.42  1.48  0.37 24.91 45.07 -99.0  0.05  8.32 -99.0  18.9 -99.0
   200 BC    0.141 0.284 0.405  0.05  0.51  1.53  0.21 23.13 44.95 -99.0  0.05  8.50 -99.0  18.8 -99.0

*KZ01826030    KAZ        Loam   200    ISRIC soilgrids + HC27                                                                                                                                          
@SITE        COUNTRY          LAT     LONG SCS Family                                                                                                                                                   
 -99              KZ       54.792   69.208    HC_GEN0011                                                                                                                                               
@ SCOM  SALB  SLU1  SLDR  SLRO  SLNF  SLPF  SMHB  SMPX  SMKE                                                                                                                                            
    BK  0.10  6.00  0.50 75.00  1.00  1.00 SA001 SA001 SA001                                                                                                                                            
@  SLB  SLMH  SLLL  SDUL  SSAT  SRGF  SSKS  SBDM  SLOC  SLCL  SLSI  SLCF  SLNI  SLHW  SLHB  SCEC  SADC                                                                                                  
     5 A     0.103 0.229 0.390  1.00  1.18  1.28  1.40 16.82 39.45 -99.0  0.12  7.50 -99.0  26.6 -99.0                                                                                                  
    15 A     0.113 0.240 0.392  0.85  1.00  1.30  0.87 18.56 38.67 -99.0  0.09  7.57 -99.0  23.3 -99.0                                                                                                  
    30 AB    0.127 0.254 0.396  0.70  0.79  1.33  0.69 20.93 37.57 -99.0  0.07  7.66 -99.0  22.5 -99.0                                                                                                  
    60 BA    0.141 0.268 0.400  0.50  0.63  1.38  0.63 23.31 36.22 -99.0  0.06  7.78 -99.0  23.5 -99.0                                                                                                  
   100 B     0.140 0.266 0.399  0.38  0.65  1.44  0.61 23.21 35.65 -99.0  0.05  7.91 -99.0  23.8 -99.0                                                                                                  
   200 BC    0.130 0.253 0.395  0.05  0.78  1.50  0.60 21.46 35.40 -99.0  0.05  8.10 -99.0  23.7 -99.0 

*KZ01830349    KAZ        Loam   200    ISRIC soilgrids + HC27                                                                                                                                          
@SITE        COUNTRY          LAT     LONG SCS Family                                                                                                                                                   
 -99              KZ       54.708   69.125    HC_GEN0011                                                                                                                                               
@ SCOM  SALB  SLU1  SLDR  SLRO  SLNF  SLPF  SMHB  SMPX  SMKE                                                                                                                                            
    BK  0.10  6.00  0.50 75.00  1.00  1.00 SA001 SA001 SA001                                                                                                                                            
@  SLB  SLMH  SLLL  SDUL  SSAT  SRGF  SSKS  SBDM  SLOC  SLCL  SLSI  SLCF  SLNI  SLHW  SLHB  SCEC  SADC                                                                                                  
     5 A     0.101 0.227 0.389  1.00  1.23  1.26  1.40 16.47 39.70 -99.0  0.12  7.54 -99.0  27.7 -99.0                                                                                                  
    15 A     0.111 0.238 0.392  0.85  1.04  1.28  0.87 18.17 38.98 -99.0  0.09  7.61 -99.0  24.3 -99.0                                                                                                  
    30 AB    0.125 0.252 0.395  0.70  0.83  1.31  0.69 20.52 37.90 -99.0  0.07  7.71 -99.0  23.5 -99.0                                                                                                  
    60 BA    0.139 0.266 0.400  0.50  0.66  1.36  0.63 22.89 36.60 -99.0  0.06  7.82 -99.0  24.5 -99.0                                                                                                  
   100 B     0.138 0.264 0.399  0.38  0.68  1.42  0.61 22.72 36.00 -99.0  0.05  7.96 -99.0  24.7 -99.0                                                                                                  
   200 BC    0.128 0.251 0.395  0.05  0.81  1.48  0.60 21.09 35.59 -99.0  0.05  8.14 -99.0  24.6 -99.0                                                                                                  
 
*KZ02011812    KAZ        Loam   200    ISRIC soilgrids + HC27                                                                                                                                          
@SITE        COUNTRY          LAT     LONG SCS Family                                                                                                                                                   
 -99              KZ       51.208   71.042    HC_GEN0011                                                                                                                                               
@ SCOM  SALB  SLU1  SLDR  SLRO  SLNF  SLPF  SMHB  SMPX  SMKE                                                                                                                                            
    BK  0.10  6.00  0.50 75.00  1.00  1.00 SA001 SA001 SA001                                                                                                                                            
@  SLB  SLMH  SLLL  SDUL  SSAT  SRGF  SSKS  SBDM  SLOC  SLCL  SLSI  SLCF  SLNI  SLHW  SLHB  SCEC  SADC                                                                                                  
     5 A     0.098 0.242 0.390  1.00  0.99  1.39  1.40 15.86 48.26 -99.0  0.12  7.20 -99.0  22.9 -99.0                                                                                                  
    15 A     0.108 0.252 0.393  0.85  0.85  1.41  0.87 17.52 47.63 -99.0  0.09  7.27 -99.0  20.0 -99.0                                                                                                  
    30 AB    0.121 0.266 0.398  0.70  0.68  1.44  0.69 19.81 46.65 -99.0  0.07  7.36 -99.0  19.4 -99.0                                                                                                  
    60 BA    0.134 0.278 0.403  0.50  0.56  1.49  0.63 21.94 45.48 -99.0  0.06  7.48 -99.0  20.2 -99.0                                                                                                  
   100 B     0.134 0.276 0.402  0.38  0.57  1.56  0.61 21.95 44.89 -99.0  0.05  7.62 -99.0  20.3 -99.0                                                                                                  
   200 BC    0.123 0.264 0.397  0.05  0.69  1.61  0.60 20.18 44.69 -99.0  0.05  7.80 -99.0  20.3 -99.0  

*KZ02016131    KAZ        Loam   200    ISRIC soilgrids + HC27                                                                                                                                          
@SITE        COUNTRY          LAT     LONG SCS Family                                                                                                                                                   
 -99              KZ       51.125   70.958    HC_GEN0011                                                                                                                                               
@ SCOM  SALB  SLU1  SLDR  SLRO  SLNF  SLPF  SMHB  SMPX  SMKE                                                                                                                                            
    BK  0.10  6.00  0.50 75.00  1.00  1.00 SA001 SA001 SA001                                                                                                                                            
@  SLB  SLMH  SLLL  SDUL  SSAT  SRGF  SSKS  SBDM  SLOC  SLCL  SLSI  SLCF  SLNI  SLHW  SLHB  SCEC  SADC                                                                                                  
     5 A     0.106 0.254 0.393  1.00  0.83  1.38  1.40 17.18 49.68 -99.0  0.12  7.35 -99.0  23.0 -99.0                                                                                                  
    15 A     0.116 0.264 0.397  0.85  0.71  1.39  0.87 18.87 49.01 -99.0  0.09  7.42 -99.0  20.2 -99.0                                                                                                  
    30 AB    0.129 0.277 0.402  0.70  0.58  1.42  0.69 21.12 48.01 -99.0  0.07  7.52 -99.0  19.5 -99.0                                                                                                  
    60 BA    0.143 0.290 0.408  0.50  0.47  1.48  0.63 23.43 46.92 -99.0  0.06  7.63 -99.0  20.4 -99.0                                                                                                  
   100 B     0.142 0.289 0.407  0.38  0.48  1.54  0.61 23.32 46.42 -99.0  0.05  7.77 -99.0  20.5 -99.0                                                                                                  
   200 BC    0.133 0.278 0.402  0.05  0.57  1.59  0.60 21.78 46.19 -99.0  0.05  7.95 -99.0  20.5 -99.0

*KZ02033430    KAZ        Loam   200    ISRIC soilgrids + HC27                                                                                                                                          
@SITE        COUNTRY          LAT     LONG SCS Family                                                                                                                                                   
 -99              KZ       50.792   72.542    HC_GEN0011                                                                                                                                               
@ SCOM  SALB  SLU1  SLDR  SLRO  SLNF  SLPF  SMHB  SMPX  SMKE                                                                                                                                            
    BK  0.10  6.00  0.50 75.00  1.00  1.00 SA001 SA001 SA001                                                                                                                                            
@  SLB  SLMH  SLLL  SDUL  SSAT  SRGF  SSKS  SBDM  SLOC  SLCL  SLSI  SLCF  SLNI  SLHW  SLHB  SCEC  SADC                                                                                                  
     5 A     0.101 0.238 0.391  1.00  1.06  1.36  1.40 16.30 45.02 -99.0  0.12  7.02 -99.0  24.8 -99.0                                                                                                  
    15 A     0.111 0.249 0.394  0.85  0.90  1.38  0.87 18.02 44.33 -99.0  0.09  7.09 -99.0  21.8 -99.0                                                                                                  
    30 AB    0.125 0.263 0.398  0.70  0.71  1.41  0.69 20.42 43.24 -99.0  0.07  7.18 -99.0  21.0 -99.0                                                                                                  
    60 BA    0.138 0.276 0.403  0.50  0.58  1.46  0.63 22.70 42.14 -99.0  0.06  7.30 -99.0  22.0 -99.0                                                                                                  
   100 B     0.138 0.274 0.402  0.38  0.59  1.52  0.61 22.66 41.41 -99.0  0.05  7.44 -99.0  22.1 -99.0                                                                                                  
   200 BC    0.127 0.262 0.397  0.05  0.71  1.58  0.60 20.88 41.29 -99.0  0.05  7.62 -99.0  22.1 -99.0 

*KZ02033431    KAZ        Loam   200    ISRIC soilgrids + HC27                                                                                                                                          
@SITE        COUNTRY          LAT     LONG SCS Family                                                                                                                                                   
 -99              KZ       50.792   72.625    HC_GEN0011                                                                                                                                               
@ SCOM  SALB  SLU1  SLDR  SLRO  SLNF  SLPF  SMHB  SMPX  SMKE                                                                                                                                            
    BK  0.10  6.00  0.50 75.00  1.00  1.00 SA001 SA001 SA001                                                                                                                                            
@  SLB  SLMH  SLLL  SDUL  SSAT  SRGF  SSKS  SBDM  SLOC  SLCL  SLSI  SLCF  SLNI  SLHW  SLHB  SCEC  SADC                                                                                                  
     5 A     0.106 0.243 0.392  1.00  0.98  1.34  1.40 17.18 44.24 -99.0  0.12  7.11 -99.0  27.4 -99.0                                                                                                  
    15 A     0.117 0.254 0.396  0.85  0.83  1.36  0.87 19.00 43.55 -99.0  0.09  7.18 -99.0  24.0 -99.0                                                                                                  
    30 AB    0.131 0.268 0.400  0.70  0.66  1.39  0.69 21.43 42.47 -99.0  0.07  7.27 -99.0  23.3 -99.0                                                                                                  
    60 BA    0.145 0.282 0.405  0.50  0.53  1.44  0.63 23.85 41.22 -99.0  0.06  7.38 -99.0  24.3 -99.0                                                                                                  
   100 B     0.144 0.280 0.404  0.38  0.54  1.50  0.61 23.72 40.65 -99.0  0.05  7.53 -99.0  24.5 -99.0                                                                                                  
   200 BC    0.134 0.268 0.399  0.05  0.65  1.56  0.60 22.05 40.46 -99.0  0.05  7.71 -99.0  24.4 -99.0
