*SOILS: General DSSAT Soil Input File
! DSSAT v4.5; 04/17/2015
!
!======================================================================================================

*NCBT150001  NRCS        SALO   178. Norfolk sandy loam, 0-2% slopes
@SITE....... COUNTRY....      LAT     LONG SCSFAMILY.........................................
 BT Site     NC Location   36.132  -77.176 fine-loamy, kaolinitic, thermic Typic Kandiudults
@ SCOM  SALB  SLU1  SLDR  SLRO  SLNF  SLPF  SMHB  SMPX  SMKE
 -99    0.13   3.0  0.70   87.  1.00  0.89 IB001 IB001 IB001
@  SLB  SLMH  SLLL  SDUL  SSAT  SRGF  SSKS  SBDM  SLOC  SLCL  SLSI  SLCF  SLNI  SLHW  SLHB  SCEC  SADC
    3.   -99 0.081 0.206 0.399 1.000 3.575  1.59  1.25   8.0  26.0   -99   -99   -99   -99   -99   -99
   15.   -99 0.081 0.206 0.399 1.000 3.575  1.59  1.25   8.0  26.0   -99   -99   -99   -99   -99   -99
   23.   -99 0.081 0.206 0.399 1.000 3.575  1.59  1.25   8.0  26.0   -99   -99   -99   -99   -99   -99
   38.   -99 0.081 0.166 0.399 0.500 3.575  1.59  1.25   8.0  26.0   -99   -99   -99   -99   -99   -99
   48.   -99 0.154 0.274 0.472 0.100 0.392  1.40  0.50  26.0  18.0   -99   -99   -99   -99   -99   -99
   68.   -99 0.181 0.306 0.485 0.000 0.237  1.37  0.50  32.0  14.0   -99   -99   -99   -99   -99   -99
   90.   -99 0.181 0.306 0.485 0.000 0.237  1.37  0.50  32.0  14.0   -99   -99   -99   -99   -99   -99
  105.   -99 0.181 0.306 0.485 0.000 0.237  1.37  0.50  32.0  14.0   -99   -99   -99   -99   -99   -99
  120.   -99 0.181 0.306 0.485 0.000 0.237  1.37  0.50  32.0  14.0   -99   -99   -99   -99   -99   -99
  135.   -99 0.181 0.306 0.485 0.000 0.237  1.37  0.50  32.0  14.0   -99   -99   -99   -99   -99   -99
  150.   -99 0.181 0.306 0.485 0.000 0.237  1.37  0.50  32.0  14.0   -99   -99   -99   -99   -99   -99
  165.   -99 0.181 0.306 0.485 0.000 0.237  1.37  0.50  32.0  14.0   -99   -99   -99   -99   -99   -99
  178.   -99 0.181 0.306 0.485 0.000 0.237  1.37  0.50  32.0  14.0   -99   -99   -99   -99   -99   -99
