*SOILS: Queensland University of Technology

*QUKI100004  -99         C       100 Kingaroy
@SITE        COUNTRY          LAT     LONG SCS FAMILY
 Kingaroy Australia           -99     -99  Brown Ferrasol
@ SCOM  SALB  SLU1  SLDR  SLRO  SLNF  SLPF  SMHB  SMPX  SMKE DIFAC
    BL   .12     6    .3    73     1     1  IB00  IB00  IB00  0.45
@  SLB  SLMH  SLLL  SDUL  SSAT  SRGF  SSKS  SBDM  SLOC  SLCL  SLSI  SLCF  SLNI  SLHW  SLHB  SCEC  SADC   !  SSKS
     5   -99   .18   .31   .49     1    .1  1.23   1.5    50    17    39   .15   7.3   -99    71   -99   !    .1
    10   -99   .18   .31   .49     1    .1  1.23   1.5    50    17    39   .15   7.2   -99    71   -99   !    .1
    20   -99   .19   .29   .51    .9    .1  1.30   1.4    55    14    39   .14   7.5   -99    71   -99   !    .1
    30   -99   .20   .28   .51    .8    .1  1.33   1.1    60    10    39   .11   7.9   -99    71   -99   !    .1
    40   -99   .21   .32   .52    .6    .1  1.33    .5    60    10    39   .05   8.1   -99    71   -99   !    .1
    50   -99   .21   .29   .55    .4   .05  1.33    .3    60    10    39   .03   8.2   -99    71   -99   !   .05
    60   -99   .22   .29   .55    .3   .03  1.33    .1    60    10    39   .01   8.3   -99    65   -99   !   .03
    70   -99   .22   .29   .55   .06   .01  1.33    .1    60    10    39   .01   8.5   -99    65   -99   !   .01
    80   -99   .22   .29   .55   .03   .01  1.33    .1    60    10    39   .01   8.5   -99    65   -99   !   .01
    90   -99   .22   .29   .55   .01   .01  1.31    .1    28    33    39   .01   8.5   -99    65   -99   !   .01
 
 