*SOILS: Texas soils

*TXBD000001  IBSNAT      SIC     210 DEFAULT - DEEP SILTY CLAY
@SITE        COUNTRY          LAT     LONG SCS FAMILY
 Generic     Generic          -99      -99 Generic
@ SCOM  SALB  SLU1  SLDR  SLRO  SLNF  SLPF  SMHB  SMPX  SMKE
   -99  0.11   6.0  0.30  82.0  1.00  1.00 IB001 IB001 IB001
@  SLB  SLMH  SLLL  SDUL  SSAT  SRGF  SSKS  SBDM  SLOC  SLCL  SLSI  SLCF  SLNI  SLHW  SLHB  SCEC  SADC
     5   -99 0.150 0.310 0.481 1.000  0.50  1.30  1.75  50.0  45.0   0.0 0.170   6.5   -99   -99   -99 
    15   -99 0.150 0.310 0.481 1.000  0.20  1.30  1.75  50.0  45.0   0.0 0.170   6.5   -99   -99   -99 
    30   -99 0.140 0.300 0.482 0.700  0.20  1.30  1.60  50.0  45.0   0.0 0.170   6.5   -99   -99   -99 
    45   -99 0.180 0.320 0.465 0.400  0.20  1.35  1.45  50.0  45.0   0.0 0.140   6.5   -99   -99   -99 
    60   -99 0.200 0.340 0.465 0.300  0.20  1.35  1.45  50.0  45.0   0.0 0.140   6.5   -99   -99   -99 
    90   -99 0.230 0.360 0.468 0.300  0.20  1.35  1.10  50.0  45.0   0.0 0.110   6.5   -99   -99   -99 
   120   -99 0.245 0.370 0.452 0.280  0.20  1.40  0.65  50.0  45.0   0.0 0.060   6.5   -99   -99   -99 
   150   -99 0.260 0.380 0.455 0.260  0.20  1.40  0.30  50.0  45.0   0.0 0.030   6.5   -99   -99   -99 
   180   -99 0.260 0.380 0.457 0.220  0.20  1.40  0.10  50.0  45.0   0.0 0.010   6.5   -99   -99   -99 
   210   -99 0.260 0.380 0.457 0.220  0.20  1.40  0.01  50.0  45.0   0.0 0.000   6.5   -99   -99   -99 

*TXBD000002  IBSNAT      SIC     210 DEFAULT - DEEP SILTY CLAY
@SITE        COUNTRY          LAT     LONG SCS FAMILY
 Generic     Generic          -99      -99 Generic
@ SCOM  SALB  SLU1  SLDR  SLRO  SLNF  SLPF  SMHB  SMPX  SMKE
   -99  0.11   6.0  0.30  82.0  1.00  1.00 IB001 IB001 IB001
@  SLB  SLMH  SLLL  SDUL  SSAT  SRGF  SSKS  SBDM  SLOC  SLCL  SLSI  SLCF  SLNI  SLHW  SLHB  SCEC  SADC
     5   -99 0.150 0.290 0.481 0.700  0.50  1.30  1.75  50.0  45.0   0.0 0.170   6.5   -99   -99   -99 
    15   -99 0.150 0.290 0.481 0.400  0.20  1.30  1.75  50.0  45.0   0.0 0.170   6.5   -99   -99   -99 
    30   -99 0.160 0.290 0.482 0.300  0.20  1.30  1.60  50.0  45.0   0.0 0.170   6.5   -99   -99   -99 
    45   -99 0.180 0.310 0.465 0.300  0.20  1.35  1.45  50.0  45.0   0.0 0.140   6.5   -99   -99   -99 
    60   -99 0.200 0.330 0.465 0.300  0.20  1.35  1.45  50.0  45.0   0.0 0.140   6.5   -99   -99   -99 
    90   -99 0.210 0.330 0.468 0.200  0.20  1.35  1.10  50.0  45.0   0.0 0.110   6.5   -99   -99   -99 
   120   -99 0.220 0.360 0.452 0.200  0.20  1.40  0.65  50.0  45.0   0.0 0.060   6.5   -99   -99   -99 
   150   -99 0.260 0.370 0.455 0.200  0.20  1.40  0.30  50.0  45.0   0.0 0.030   6.5   -99   -99   -99 
   180   -99 0.260 0.370 0.457 0.100  0.20  1.40  0.10  50.0  45.0   0.0 0.010   6.5   -99   -99   -99 
   210   -99 0.260 0.380 0.457 0.100  0.01  1.40  0.01  50.0  45.0   0.0 0.000   6.5   -99   -99   -99 

!Soil DUL and LL modified by visually matching soil water measurements, K. J. Boote
*TXBD000005  IBSNAT      SIC     210 DEFAULT - DEEP SILTY CLAY
@SITE        COUNTRY          LAT     LONG SCS FAMILY
 Generic     Generic          -99      -99 Generic
@ SCOM  SALB  SLU1  SLDR  SLRO  SLNF  SLPF  SMHB  SMPX  SMKE
   -99  0.11   6.0  0.30  82.0  1.00  1.00 IB001 IB001 IB001
@  SLB  SLMH  SLLL  SDUL  SSAT  SRGF  SSKS  SBDM  SLOC  SLCL  SLSI  SLCF  SLNI  SLHW  SLHB  SCEC  SADC
     5   -99 0.150 0.300 0.481 1.000  0.50  1.30  1.75  50.0  45.0   0.0 0.170   6.5   -99   -99   -99 
    15   -99 0.150 0.300 0.481 1.000  0.20  1.30  1.75  50.0  45.0   0.0 0.170   6.5   -99   -99   -99 
    30   -99 0.150 0.300 0.482 0.700  0.20  1.30  1.60  50.0  45.0   0.0 0.170   6.5   -99   -99   -99 
    45   -99 0.180 0.330 0.465 0.400  0.20  1.35  1.45  50.0  45.0   0.0 0.140   6.5   -99   -99   -99 
    60   -99 0.190 0.340 0.465 0.300  0.20  1.35  1.45  50.0  45.0   0.0 0.140   6.5   -99   -99   -99 
    90   -99 0.210 0.360 0.468 0.220  0.20  1.35  1.10  50.0  45.0   0.0 0.110   6.5   -99   -99   -99 
   120   -99 0.230 0.370 0.452 0.240  0.20  1.40  0.65  50.0  45.0   0.0 0.060   6.5   -99   -99   -99 
   150   -99 0.245 0.380 0.455 0.180  0.20  1.40  0.30  50.0  45.0   0.0 0.030   6.5   -99   -99   -99 
   180   -99 0.245 0.380 0.457 0.160  0.20  1.40  0.10  50.0  45.0   0.0 0.010   6.5   -99   -99   -99 
   210   -99 0.245 0.380 0.457 0.120  0.20  1.40  0.01  50.0  45.0   0.0 0.000   6.5   -99   -99   -99 
   
*TXCL120007  Texas Agri  SL       140  Abilene Clay loam
@SITE        COUNTRY          LAT     LONG SCS FAMILY
 Chillicothe USA               -99     -99 Fine mixed, superactive, thermic parchic Argiustol
@ SCOM  SALB  SLU1  SLDR  SLRO  SLNF  SLPF  SMHB  SMPX  SMKE
     G   .15    10   .30    61     1     1 IB001 IB001 IB001
@  SLB  SLMH  SLLL  SDUL  SSAT  SRGF  SSKS  SBDM  SLOC  SLCL  SLSI  SLCF  SLNI  SLHW  SLHB  SCEC  SADC
     5    Ap  .040  .130  .398     1  2.59  1.53  .427     9    23     0   .04   7.1   -99    11   -99
    15    Ap  .040  .150  .398     1  2.59  1.53  .427     9    23     0   .04   7.1   -99    11   -99
    20    Ap  .080  .150  .394     1  2.59  1.54  .418    11    24     0   .04     7   -99    11   -99
    40   Bt1  .140  .190  .397  .549  2.59  1.53  .527    19    18     0   .05   7.2   -99    16   -99
    60   Bt2  .140  .190  .408  .368  2.59   1.5   .46    25    23     0   .05   7.2   -99    17   -99
    80  BtK1  .050  .140  .409  .247  2.59   1.5  .425    27    25     0   .04   7.3   -99    21   -99
   100  Btk2  .070  .160  .409  .165  1.32   1.5  .386    25    28     0   .04   7.6   -99    27   -99
   120  Btk2  .070  .160  .407  .131  1.32   1.5  .661    23    28     0   .03   7.9   -99    29   -99
   140  Btk2  .070  .160  .406  .074  1.32   1.5  .726    27    28     0   .03   8.2   -99    30   -99
   170  Btk2  .070  .160  .406  .050  1.32   1.5  .726    27    28     0   .03   8.2   -99    30   -99
   200  Btk2  .070  .160  .406  .020  1.32   1.5  .726    27    28     0   .03   8.2   -99    30   -99

*TXCL120008  Texas Agri  SL       140  Abilene Clay loam
@SITE        COUNTRY          LAT     LONG SCS FAMILY
 Chillicothe USA               -99     -99 Fine mixed, superactive, thermic parchic Argiustol
@ SCOM  SALB  SLU1  SLDR  SLRO  SLNF  SLPF  SMHB  SMPX  SMKE
     G   .15    10   .54    73     1     1 IB001 IB001 IB001
@  SLB  SLMH  SLLL  SDUL  SSAT  SRGF  SSKS  SBDM  SLOC  SLCL  SLSI  SLCF  SLNI  SLHW  SLHB  SCEC  SADC
     5    Ap  .150  .200  .398     1  6.59  1.53  .375     9    20     0   .04   8.1   -99    11   -99
    15    Ap  .150  .200  .398     1  6.59  1.53  .375     9    20     0   .04   8.1   -99    11   -99
    20    Ap  .140  .200  .395     1  6.59  1.54  .307    11    18     0   .03   8.4   -99    11   -99
    40   Bt1  .151  .196  .398  .549  6.59  1.53  .365    15    23     0   .04   8.4   -99    16   -99
    60   Bt2  .144  .209  .409  .368  6.59   1.5  .381    15    24     0   .04   8.4   -99    17   -99
    80  BtK1  .121  .198  .409  .247  6.59   1.5  .381    13    24     0   .03   8.4   -99    21   -99
   100  Btk2  .123  .219  .409  .165  6.59   1.5  .434    17    27     0   .03   8.5   -99    27   -99
   120  Btk2  .126  .215  .408  .131  6.59   1.5  .533    19    27     0   .03   8.5   -99    29   -99
   140  Btk2  .134  .292  .405  .074  1.32   1.5  .841    23    31     0   .03   8.5   -99    30   -99
   170  Btk2  .134  .292  .405  .050  1.32   1.5  .841    23    31     0   .03   8.5   -99    30   -99
   200  Btk2  .134  .292  .405  .020  1.32   1.5  .841    23    31     0   .03   8.5   -99 
