*SOILS: Texas soils

*TXBD000001  IBSNAT      SIC     210 DEFAULT - DEEP SILTY CLAY
@SITE        COUNTRY          LAT     LONG SCS FAMILY
 Generic     Generic           -99    -99  Generic
@ SCOM  SALB  SLU1  SLDR  SLRO  SLNF  SLPF  SMHB  SMPX  SMKE
   -99  0.11   6.0  0.30  82.0  1.00  1.00 IB001 IB001 IB001
@  SLB  SLMH  SLLL  SDUL  SSAT  SRGF  SSKS  SBDM  SLOC  SLCL  SLSI  SLCF  SLNI  SLHW  SLHB  SCEC  SADC
     5   -99 0.150 0.310 0.481 1.000  0.50  1.30  1.75  50.0  45.0   0.0 0.170   6.5   -99   -99   -99 
    15   -99 0.150 0.310 0.481 1.000  0.20  1.30  1.75  50.0  45.0   0.0 0.170   6.5   -99   -99   -99 
    30   -99 0.140 0.300 0.482 0.700  0.20  1.30  1.60  50.0  45.0   0.0 0.170   6.5   -99   -99   -99 
    45   -99 0.180 0.320 0.465 0.400  0.20  1.35  1.45  50.0  45.0   0.0 0.140   6.5   -99   -99   -99 
    60   -99 0.200 0.340 0.465 0.300  0.20  1.35  1.45  50.0  45.0   0.0 0.140   6.5   -99   -99   -99 
    90   -99 0.230 0.360 0.468 0.300  0.20  1.35  1.10  50.0  45.0   0.0 0.110   6.5   -99   -99   -99 
   120   -99 0.245 0.370 0.452 0.280  0.20  1.40  0.65  50.0  45.0   0.0 0.060   6.5   -99   -99   -99 
   150   -99 0.260 0.380 0.455 0.260  0.20  1.40  0.30  50.0  45.0   0.0 0.030   6.5   -99   -99   -99 
   180   -99 0.260 0.380 0.457 0.220  0.20  1.40  0.10  50.0  45.0   0.0 0.010   6.5   -99   -99   -99 
   210   -99 0.260 0.380 0.457 0.220  0.20  1.40  0.01  50.0  45.0   0.0 0.000   6.5   -99   -99   -99 

*TXBD000002  IBSNAT      SIC     210 DEFAULT - DEEP SILTY CLAY
@SITE        COUNTRY          LAT     LONG SCS FAMILY
 Generic     Generic           -99    -99  Generic
@ SCOM  SALB  SLU1  SLDR  SLRO  SLNF  SLPF  SMHB  SMPX  SMKE
   -99  0.11   6.0  0.30  82.0  1.00  1.00 IB001 IB001 IB001
@  SLB  SLMH  SLLL  SDUL  SSAT  SRGF  SSKS  SBDM  SLOC  SLCL  SLSI  SLCF  SLNI  SLHW  SLHB  SCEC  SADC
     5   -99 0.150 0.290 0.481 0.700  0.50  1.30  1.75  50.0  45.0   0.0 0.170   6.5   -99   -99   -99 
    15   -99 0.150 0.290 0.481 0.400  0.20  1.30  1.75  50.0  45.0   0.0 0.170   6.5   -99   -99   -99 
    30   -99 0.160 0.290 0.482 0.300  0.20  1.30  1.60  50.0  45.0   0.0 0.170   6.5   -99   -99   -99 
    45   -99 0.180 0.310 0.465 0.300  0.20  1.35  1.45  50.0  45.0   0.0 0.140   6.5   -99   -99   -99 
    60   -99 0.200 0.330 0.465 0.300  0.20  1.35  1.45  50.0  45.0   0.0 0.140   6.5   -99   -99   -99 
    90   -99 0.210 0.330 0.468 0.200  0.20  1.35  1.10  50.0  45.0   0.0 0.110   6.5   -99   -99   -99 
   120   -99 0.220 0.360 0.452 0.200  0.20  1.40  0.65  50.0  45.0   0.0 0.060   6.5   -99   -99   -99 
   150   -99 0.260 0.370 0.455 0.200  0.20  1.40  0.30  50.0  45.0   0.0 0.030   6.5   -99   -99   -99 
   180   -99 0.260 0.370 0.457 0.100  0.20  1.40  0.10  50.0  45.0   0.0 0.010   6.5   -99   -99   -99 
   210   -99 0.260 0.380 0.457 0.100  0.01  1.40  0.01  50.0  45.0   0.0 0.000   6.5   -99   -99   -99 

!Soil DUL and LL modified by visually matching soil water measurements, K. J. Boote
*TXBD000005  IBSNAT      SIC     210 DEFAULT - DEEP SILTY CLAY
@SITE        COUNTRY          LAT     LONG SCS FAMILY
 Generic     Generic           -99    -99  Generic
@ SCOM  SALB  SLU1  SLDR  SLRO  SLNF  SLPF  SMHB  SMPX  SMKE
   -99  0.11   6.0  0.30  82.0  1.00  1.00 IB001 IB001 IB001
@  SLB  SLMH  SLLL  SDUL  SSAT  SRGF  SSKS  SBDM  SLOC  SLCL  SLSI  SLCF  SLNI  SLHW  SLHB  SCEC  SADC
     5   -99 0.150 0.300 0.481 1.000  0.50  1.30  1.75  50.0  45.0   0.0 0.170   6.5   -99   -99   -99 
    15   -99 0.150 0.300 0.481 1.000  0.20  1.30  1.75  50.0  45.0   0.0 0.170   6.5   -99   -99   -99 
    30   -99 0.150 0.300 0.482 0.700  0.20  1.30  1.60  50.0  45.0   0.0 0.170   6.5   -99   -99   -99 
    45   -99 0.180 0.330 0.465 0.400  0.20  1.35  1.45  50.0  45.0   0.0 0.140   6.5   -99   -99   -99 
    60   -99 0.190 0.340 0.465 0.300  0.20  1.35  1.45  50.0  45.0   0.0 0.140   6.5   -99   -99   -99 
    90   -99 0.210 0.360 0.468 0.220  0.20  1.35  1.10  50.0  45.0   0.0 0.110   6.5   -99   -99   -99 
   120   -99 0.230 0.370 0.452 0.240  0.20  1.40  0.65  50.0  45.0   0.0 0.060   6.5   -99   -99   -99 
   150   -99 0.245 0.380 0.455 0.180  0.20  1.40  0.30  50.0  45.0   0.0 0.030   6.5   -99   -99   -99 
   180   -99 0.245 0.380 0.457 0.160  0.20  1.40  0.10  50.0  45.0   0.0 0.010   6.5   -99   -99   -99 
   210   -99 0.245 0.380 0.457 0.120  0.20  1.40  0.01  50.0  45.0   0.0 0.000   6.5   -99   -99   -99 
   
*TXCH120008  Texas Agri  LO     160. Abilene Clay loam, TX, Chillicothe
@SITE....... COUNTRY....      LAT     LONG SCSFAMILY.........................................
 Chillicothe TX Location   -9.000 -102.000 Fine mixed, superactive, thermic parchic Argiustol
@ SCOM  SALB  SLU1  SLDR  SLRO  SLNF  SLPF  SMHB  SMPX  SMKE
 BN     0.13   6.0  0.60   25.  1.00  1.00 SA001 SA001 SA001
@  SLB  SLMH  SLLL  SDUL  SSAT  SRGF  SSKS  SBDM  SLOC  SLCL  SLSI  SLCF  SLNI  SLHW  SLHB  SCEC  SADC
    5.    Ap 0.103 0.319 0.440 1.000 0.670  1.32  1.00  26.0  40.0   0.0  0.10   7.3   -99  20.0   -99
   12.    Ap 0.103 0.319 0.440 1.000 0.670  1.32  1.00  26.0  40.0   0.0  0.10   7.3   -99  20.0   -99
   30.   Bt1 0.109 0.301 0.428 1.000 0.460  1.40  0.67  28.0  32.0   0.0  0.07   7.7   -99  20.3   -99
   45.   Bt2 0.126 0.311 0.439 0.800 0.450  1.41  0.64  34.0  27.0   0.0  0.07   7.6   -99  21.4   -99
   60.  BtK1 0.118 0.314 0.439 0.600 0.440  1.39  0.48  32.0  34.0   0.0  0.05   7.9   -99  23.5   -99
   90.  Btk2 0.117 0.311 0.434 0.300 0.390  1.41  0.31  32.0  34.0   0.0  0.04   7.9   -99  23.5   -99
  120.   -99 0.117 0.311 0.434 0.100 0.390  1.41  0.31  32.0  34.0   0.0  0.04   7.9   -99  23.5   -99
  150.   -99 0.117 0.311 0.434 0.100 0.390  1.41  0.31  32.0  34.0   0.0  0.04   7.9   -99  23.5   -99
  160.   -99 0.117 0.311 0.434 0.100 0.390  1.41  0.31  32.0  34.0   0.0  0.04   7.9   -99  23.5   -99

*TXCI120003  Texas Agri  SALO   200. Grantfield fsl, irrigated, cover
@SITE....... COUNTRY....      LAT     LONG SCSFAMILY.........................................
 Chillicothe TX Location   -9.000  -99.000 Fine mixed, superactive, thermic parchic Argiustol
@ SCOM  SALB  SLU1  SLDR  SLRO  SLNF  SLPF  SMHB  SMPX  SMKE
 G      0.15  10.0  0.60   78.  1.00  1.00 SA001 SA001 SA001
@  SLB  SLMH  SLLL  SDUL  SSAT  SRGF  SSKS  SBDM  SLOC  SLCL  SLSI  SLCF  SLNI  SLHW  SLHB  SCEC  SADC
    5.    Ap 0.040 0.130 0.398 1.000 2.590  1.53  0.43   9.0  23.0   0.0  0.04   7.1   -99  11.0   -99
   20.    Ap 0.050 0.150 0.395 1.000 2.590  1.54  0.42  11.0  24.0   0.0  0.04   7.0   -99  11.0   -99
   40.   Bt1 0.140 0.190 0.398 0.250 2.590  1.53  0.53  19.0  18.0   0.0  0.05   7.2   -99  16.0   -99
   60.   Bt2 0.120 0.170 0.409 0.200 2.590  1.50  0.46  25.0  23.0   0.0  0.05   7.2   -99  17.0   -99
   80.  BtK1 0.050 0.150 0.409 0.100 2.590  1.50  0.43  27.0  25.0   0.0  0.04   7.3   -99  21.0   -99
  100.  Btk2 0.070 0.160 0.408 0.100 1.320  1.50  0.39  25.0  28.0   0.0  0.04   7.6   -99  27.0   -99
  120.  Btk2 0.070 0.160 0.408 0.100 1.320  1.50  0.66  23.0  28.0   0.0  0.03   7.9   -99  29.0   -99
  140.  Btk2 0.070 0.160 0.408 0.100 1.320  1.50  0.73  27.0  28.0   0.0  0.03   8.2   -99  30.0   -99
  170.  Btk2 0.070 0.160 0.405 0.000 1.320  1.50  0.73  27.0  28.0   0.0  0.03   8.2   -99  30.0   -99
  200.  Btk2 0.070 0.160 0.405 0.000 1.320  1.50  0.73  27.0  28.0   0.0  0.03   8.2   -99  30.0   -99

*TXCI120004  Texas Agri  SALO   200. Grandfield fsl, dryland, cover
@SITE....... COUNTRY....      LAT     LONG SCSFAMILY.........................................
 Chillicothe TX Location   -9.000  -99.000 Fine mixed, superactive, thermic parchic Argiustol
@ SCOM  SALB  SLU1  SLDR  SLRO  SLNF  SLPF  SMHB  SMPX  SMKE
 G      0.15  10.0  0.60   78.  1.00  1.00 SA001 SA001 SA001
@  SLB  SLMH  SLLL  SDUL  SSAT  SRGF  SSKS  SBDM  SLOC  SLCL  SLSI  SLCF  SLNI  SLHW  SLHB  SCEC  SADC
    5.    Ap 0.040 0.140 0.398 1.000 6.590  1.53  0.38   9.0  20.0   0.0  0.04   8.1   -99  11.0   -99
   20.    Ap 0.040 0.140 0.395 1.000 6.590  1.54  0.31  11.0  18.0   0.0  0.03   8.4   -99  11.0   -99
   40.   Bt1 0.155 0.205 0.398 0.250 6.590  1.53  0.37  15.0  23.0   0.0  0.04   8.4   -99  16.0   -99
   60.   Bt2 0.165 0.205 0.409 0.200 6.590  1.50  0.38  15.0  24.0   0.0  0.04   8.4   -99  17.0   -99
   80.  BtK1 0.121 0.205 0.409 0.100 6.590  1.50  0.38  13.0  24.0   0.0  0.03   8.4   -99  21.0   -99
  100.  Btk2 0.110 0.180 0.408 0.100 6.590  1.50  0.43  17.0  27.0   0.0  0.03   8.5   -99  27.0   -99
  120.  Btk2 0.110 0.180 0.408 0.100 6.590  1.50  0.53  19.0  27.0   0.0  0.03   8.5   -99  29.0   -99
  140.  Btk2 0.110 0.180 0.408 0.100 1.320  1.50  0.84  23.0  31.0   0.0  0.03   8.5   -99  30.0   -99
  170.  Btk2 0.134 0.292 0.405 0.000 1.320  1.50  0.84  23.0  31.0   0.0  0.03   8.5   -99  30.0   -99
  200.  Btk2 0.134 0.292 0.405 0.000 1.320  1.50  0.84  23.0  31.0   0.0  0.03   8.5   -99  30.0   -99

*TXCI120005  Texas Agri  SALO   200. Grantfield fsl, irrigated, no cover
@SITE....... COUNTRY....      LAT     LONG SCSFAMILY.........................................
 Chillicothe TX Location   -9.000  -99.000 Fine mixed, superactive, thermic parchic Argiustol
@ SCOM  SALB  SLU1  SLDR  SLRO  SLNF  SLPF  SMHB  SMPX  SMKE
 G      0.15  10.0  0.60   78.  1.00  1.00 SA001 SA001 SA001
@  SLB  SLMH  SLLL  SDUL  SSAT  SRGF  SSKS  SBDM  SLOC  SLCL  SLSI  SLCF  SLNI  SLHW  SLHB  SCEC  SADC
    5.    Ap 0.040 0.130 0.398 1.000 2.590  1.53  0.43   9.0  23.0   0.0  0.04   7.1   -99  11.0   -99
   20.    Ap 0.050 0.150 0.395 1.000 2.590  1.54  0.42  11.0  24.0   0.0  0.04   7.0   -99  11.0   -99
   40.   Bt1 0.140 0.190 0.398 0.250 2.590  1.53  0.53  19.0  18.0   0.0  0.05   7.2   -99  16.0   -99
   60.   Bt2 0.140 0.190 0.409 0.200 2.590  1.50  0.46  25.0  23.0   0.0  0.05   7.2   -99  17.0   -99
   80.  BtK1 0.080 0.160 0.409 0.100 2.590  1.50  0.43  27.0  25.0   0.0  0.04   7.3   -99  21.0   -99
  100.  Btk2 0.090 0.180 0.408 0.100 1.320  1.50  0.39  25.0  28.0   0.0  0.04   7.6   -99  27.0   -99
  120.  Btk2 0.090 0.180 0.408 0.100 1.320  1.50  0.66  23.0  28.0   0.0  0.03   7.9   -99  29.0   -99
  140.  Btk2 0.090 0.180 0.408 0.100 1.320  1.50  0.73  27.0  28.0   0.0  0.03   8.2   -99  30.0   -99
  170.  Btk2 0.090 0.180 0.405 0.000 1.320  1.50  0.73  27.0  28.0   0.0  0.03   8.2   -99  30.0   -99
  200.  Btk2 0.090 0.180 0.405 0.000 1.320  1.50  0.73  27.0  28.0   0.0  0.03   8.2   -99  30.0   -99

*TXCI120006  Texas Agri  SALO   200. Grantfield fsl, dryland, wo cover
@SITE....... COUNTRY....      LAT     LONG SCSFAMILY.........................................
 Chillicothe TX Location   -9.000  -99.000 Fine mixed, superactive, thermic parchic Argiustol
@ SCOM  SALB  SLU1  SLDR  SLRO  SLNF  SLPF  SMHB  SMPX  SMKE
 G      0.15  10.0  0.60   78.  1.00  1.00 SA001 SA001 SA001
@  SLB  SLMH  SLLL  SDUL  SSAT  SRGF  SSKS  SBDM  SLOC  SLCL  SLSI  SLCF  SLNI  SLHW  SLHB  SCEC  SADC
    5.    Ap 0.040 0.140 0.398 1.000 6.590  1.53  0.38   9.0  20.0   0.0  0.04   8.1   -99  11.0   -99
   20.    Ap 0.040 0.140 0.395 1.000 6.590  1.54  0.31  11.0  18.0   0.0  0.03   8.4   -99  11.0   -99
   40.   Bt1 0.155 0.200 0.398 0.250 6.590  1.53  0.37  15.0  23.0   0.0  0.04   8.4   -99  16.0   -99
   60.   Bt2 0.165 0.200 0.409 0.200 6.590  1.50  0.38  15.0  24.0   0.0  0.04   8.4   -99  17.0   -99
   80.  BtK1 0.115 0.205 0.409 0.100 6.590  1.50  0.38  13.0  24.0   0.0  0.03   8.4   -99  21.0   -99
  100.  Btk2 0.110 0.180 0.408 0.100 6.590  1.50  0.43  17.0  27.0   0.0  0.03   8.5   -99  27.0   -99
  120.  Btk2 0.110 0.180 0.408 0.100 6.590  1.50  0.53  19.0  27.0   0.0  0.03   8.5   -99  29.0   -99
  140.  Btk2 0.110 0.180 0.408 0.100 1.320  1.50  0.84  23.0  31.0   0.0  0.03   8.5   -99  30.0   -99
  170.  Btk2 0.134 0.292 0.405 0.000 1.320  1.50  0.84  23.0  31.0   0.0  0.03   8.5   -99  30.0   -99
  200.  Btk2 0.134 0.292 0.405 0.000 1.320  1.50  0.84  23.0  31.0   0.0  0.03   8.5   -99  30.0   -99

*TXHW100001  Measured    SALO   210. Pullman Clay Loam
@SITE....... COUNTRY....      LAT     LONG SCSFAMILY.........................................
 HW-Halfway  TX Location   34.100 -101.950 Fine, mixed, super thermic Torrertic Paleustolls
@ SCOM  SALB  SLU1  SLDR  SLRO  SLNF  SLPF  SMHB  SMPX  SMKE
 BN     0.20  12.0  0.70   80.  1.00  1.00 SA001 SA001 SA001
@  SLB  SLMH  SLLL  SDUL  SSAT  SRGF  SSKS  SBDM  SLOC  SLCL  SLSI  SLCF  SLNI  SLHW  SLHB  SCEC  SADC
    5.    Ap 0.090 0.196 0.383 1.000 1.050  1.63  0.76  17.0  19.0   -99   -99   8.3   -99  19.5   -99
   15.    Ap 0.090 0.196 0.383 1.000 1.050  1.63  0.76  17.0  19.0   -99   -99   8.3   -99  19.5   -99
   30.  B21t 0.109 0.234 0.403 1.000 0.400  1.58  0.66  25.0  27.0   -99   -99   8.1   -99  23.4   -99
   45.  B22t 0.124 0.254 0.416 0.900 0.250  1.55  0.56  31.0  27.0   -99   -99   7.9   -99  25.4   -99
   60.  B23t 0.140 0.269 0.423 0.800 0.230  1.53  0.54  36.0  24.0   -99   -99   7.8   -99  28.3   -99
   90.  B33t 0.135 0.262 0.418 0.600 0.240  1.54  0.50  34.0  24.0   -99   -99   7.9   -99  32.9   -99
  120.  B33t 0.135 0.262 0.418 0.400 0.240  1.54  0.30  34.0  24.0   -99   -99   7.9   -99  32.9   -99
  150.  B33t 0.135 0.262 0.418 0.200 0.240  1.54  0.10  34.0  24.0   -99   -99   7.9   -99  32.9   -99
  180.  B33t 0.135 0.262 0.418 0.050 0.240  1.54  0.10  34.0  24.0   -99   -99   7.9   -99  32.9   -99
  210.  B33t 0.135 0.262 0.418 0.010 0.240  1.54  0.10  34.0  24.0   -99   -99   7.9   -99  32.9   -99

*TXTE840001  IBSNAT      SICL   210. Frio - Deep Silty Clay
@SITE....... COUNTRY....      LAT     LONG SCSFAMILY.........................................
 TE-Temple   TX Location   -9.000  -97.348 Generic
@ SCOM  SALB  SLU1  SLDR  SLRO  SLNF  SLPF  SMHB  SMPX  SMKE
 -99    0.11   6.0  0.70   60.  1.00  1.00 SA001 SA001 SA001
@  SLB  SLMH  SLLL  SDUL  SSAT  SRGF  SSKS  SBDM  SLOC  SLCL  SLSI  SLCF  SLNI  SLHW  SLHB  SCEC  SADC
    5.   -99 0.080 0.300 0.350 1.000 1.000  1.30  1.75  50.0  45.0   0.0  0.17   6.5   -99   -99   -99
   15.   -99 0.080 0.300 0.350 1.000 1.000  1.30  1.75  50.0  45.0   0.0  0.17   6.5   -99   -99   -99
   30.   -99 0.140 0.260 0.350 1.000 1.000  1.30  1.60  50.0  45.0   0.0  0.17   6.5   -99   -99   -99
   45.   -99 0.180 0.300 0.350 1.000 1.000  1.35  1.45  50.0  45.0   0.0  0.14   6.5   -99   -99   -99
   60.   -99 0.190 0.320 0.350 1.000 0.200  1.35  1.45  50.0  45.0   0.0  0.14   6.5   -99   -99   -99
   90.   -99 0.200 0.330 0.350 1.000 0.200  1.35  1.10  50.0  45.0   0.0  0.11   6.5   -99   -99   -99
  120.   -99 0.220 0.360 0.452 1.000 0.200  1.40  0.65  50.0  45.0   0.0  0.06   6.5   -99   -99   -99
  150.   -99 0.230 0.370 0.455 1.000 0.200  1.40  0.30  50.0  45.0   0.0  0.03   6.5   -99   -99   -99
  180.   -99 0.230 0.360 0.457 1.000 0.200  1.40  0.10  50.0  45.0   0.0  0.01   6.5   -99   -99   -99
  210.   -99 0.230 0.350 0.457 1.000 0.200  1.40  0.01  50.0  45.0   0.0  0.00   6.5   -99   -99   -99
