*SOILS: Florida Muck & other soils

!  Soils defined by data from USGS/ USDA/SCS 1976 Soil Survey of Palm Beach County 1976
!  There is no Muck texture description in DSSAT soils modules.  The designations LS and S were used simply to make the model run.

*UFBG760001  USGS        LS      105 Okeelanta Muck
@SITE        COUNTRY          LAT     LONG SCS FAMILY
 EREC        USA           26.600   80.600 Euic, Typic, Hydric Medisaprist
@ SCOM  SALB  SLU1  SLDR  SLRO  SLNF  SLPF  SMHB  SMPX  SMKE
    BL  0.09   6.0  0.40  61.0  1.00  1.00 IB001 IB001 IB001
@  SLB  SLMH  SLLL  SDUL  SSAT  SRGF  SSKS  SBDM  SLOC  SLCL  SLSI  SLCF  SLNI  SLHW  SLHB  SCEC  SADC
   100     A 0.200 0.500 0.800 1.000  5.00  0.35 58.00   5.0  10.0   0.0   -99   6.0   -99   -99   -99 
   105     C 0.026 0.058 0.402 0.129  0.10  1.53  0.01   0.0   0.0   0.0   -99   8.4   -99   -99   -99 
@  SLB  SLPX  SLPT  SLPO CACO3  SLAL  SLFE  SLMN  SLBS  SLPA  SLPB  SLKE  SLMG  SLNA  SLSU  SLEC  SLCA
   100  96.0 210.0 187.0  0.00  2.30  2.30   -99   0.1   -99   -99  0.10  0.10  0.00 13.30   -99   -99 
   105  56.0 183.0 155.0  0.00  2.00  2.30   -99   -99   -99   -99  0.00  0.10  0.00 15.30   -99   -99 

*UFBG760002  SCS         S        71 Lauderhill Muck
@SITE        COUNTRY          LAT     LONG SCS FAMILY
 EREC        USA           26.400   80.400 euic, hyperthermic Lithic Haplosaprist
@ SCOM  SALB  SLU1  SLDR  SLRO  SLNF  SLPF  SMHB  SMPX  SMKE
    BL  0.09   6.0  0.25  61.0  1.00  1.00 IB001 SA001 IB001
@  SLB  SLMH  SLLL  SDUL  SSAT  SRGF  SSKS  SBDM  SLOC  SLCL  SLSI  SLCF  SLNI  SLHW  SLHB  SCEC  SADC
    20   Oap 0.150 0.250 0.500 1.000 21.00  0.35 45.00   5.0   5.0   0.0 3.500   6.2   -99 211.0   -99 
    45   Oa2 0.150 0.250 0.500 0.522 21.00  0.35 46.00   5.0   5.0   0.0 3.500   6.3   -99 210.0   -99 
    60   Oa3 0.150 0.250 0.500 0.330 21.00  0.35 40.00   5.0   5.0   0.0 3.500   6.6   -99 141.0   -99 
    71   -99 0.026 0.058 0.402 0.010  0.01  1.53  0.07   0.0   0.0  80.0   -99   8.4   -99   -99   -99 
@  SLB  SLPX  SLPT  SLPO CACO3  SLAL  SLFE  SLMN  SLBS  SLPA  SLPB  SLKE  SLMG  SLNA  SLSU  SLEC  SLCA
    20  96.0 210.0 187.0  0.27  2.30  2.30   -99   0.1   -99   -99  0.08  0.13  0.00 13.30   -99  0.27 
    45  56.0 183.0 155.0  0.12  2.01  2.30   -99   -99   -99   -99  0.03  0.05  0.00 15.30   -99  0.12 
    60  40.0 150.3 100.0  0.11  1.25  2.30   -99   -99   -99   -99  0.03  0.04  0.00 14.10   -99  0.11 
    71   0.1   0.1   0.1  0.09  0.09  0.90  0.09   0.1  0.09  0.09  0.09  0.09  0.00 90.09  0.09  0.10 
    
*UFON780006  S25-2-(1-7) S       203 Pomona Fine Sand  !9/19/22 kjb
@SITE        COUNTRY          LAT     LONG SCS FAMILY
 Ona REC     USA            27.420 -81.920 Ultic Haplaquods, sandy, siliceous, hyperthermic
@ SCOM  SALB  SLU1  SLDR  SLRO  SLNF  SLPF  SMHB  SMPX  SMKE
    BL  0.09   5.9  0.60  30.0  1.00  0.96 IB001 IB001 IB001
@  SLB  SLMH  SLLL  SDUL  SSAT  SRGF  SSKS  SBDM  SLOC  SLCL  SLSI  SLCF  SLNI  SLHW  SLHB  SCEC  SADC
     8    A1 0.027 0.120 0.471 1.000 21.00  1.32  1.02   0.6   5.5   0.0   -99   5.2   -99   8.1      
    25   A21 0.021 0.109 0.389 1.000 10.90  1.56  0.27   0.5   3.4   0.0   -99   4.9   -99   0.3      
    68   A22 0.023 0.101 0.347 1.000 13.80  1.68  0.11   0.4   2.3   0.0   -99   4.9   -99   0.0      
    89   B2H 0.020 0.107 0.307 0.800  3.20  1.78  0.62   1.6   5.4   0.0   -99   4.5   -99   5.3      
   117    B3 0.025 0.107 0.313 0.800  4.70  1.77  0.35   1.1   2.9   0.0   -99   4.7   -99   2.3      
   145   A'2 0.025 0.107 0.320 0.600  2.20  1.75  0.28   2.6   2.9   0.0   -99   5.0   -99   2.5      
   203  B'TG 0.175 0.281 0.336 0.600  2.20  1.75  0.13  16.6   3.3   0.0   -99   5.0   -99  11.0      

*UFGA760006  S1-66-(1-7) S       218 Arredondo Fine Sand
@SITE        COUNTRY          LAT     LONG SCS FAMILY
 Gainesville USA            29.630 -82.400 Loamy,silic,hyperth Gross. Paleudults
@ SCOM  SALB  SLU1  SLDR  SLRO  SLNF  SLPF  SMHB  SMPX  SMKE
    BN  0.13   6.1  0.60  30.0  1.00  1.00 IB001 IB001 IB001
@  SLB  SLMH  SLLL  SDUL  SSAT  SRGF  SSKS  SBDM  SLOC  SLCL  SLSI  SLCF  SLNI  SLHW  SLHB  SCEC  SADC
    20    Ap 0.020 0.087 0.398 1.000 22.60  1.53  0.57   3.1   4.5   0.0   -99   6.0   -99   6.3      
    79   A21 0.026 0.075 0.382 0.372 27.30  1.58  0.17   3.6   4.7   0.0   -99   5.8   -99   3.4      
   124   A22 0.023 0.090 0.405 0.131 12.20  1.52  0.05   2.7   4.3   0.0   -99   5.6   -99   2.3      
   137   B1t 0.021 0.082 0.362 0.074  5.90  1.64  0.07   9.2   4.2   0.0   -99   5.4   -99   5.6      
   162  B21t 0.205 0.291 0.369 0.050  0.10  1.62  0.09  22.4   4.6   0.0   -99   5.2   -99  15.4      
   183  B22t 0.205 0.291 0.376 0.032  1.59  1.60  0.06  27.7   5.8   0.0   -99   5.3   -99  22.6      
   218  B23t 0.205 0.291 0.358 0.018  1.27  1.65  0.06  26.5   5.6   0.0   -99   5.3   -99  23.1      
   


