*EXP.DETAILS: UHKL1801BS U OF Hohenheim, 2018, Leat spot and fungicide level

*GENERAL
@PEOPLE
Emir Memic, Simone Graeff-Honninger and Oliver Hensel
@ADDRESS
University of Hohenheim, Stuttgart, Germany
@SITE
Ihinger Hof, Agricultural Research Station of Hohenheim University
@ PAREA  PRNO  PLEN  PLDR  PLSP  PLAY HAREA  HRNO  HLEN  HARM.........
    -99   -99   -99   -99   -99   -99   -99   -99   -99   -99
@NOTES
Emir Memic, Simone Graef-Hönninger, Oliver Hensel, and William D. Batchelor, 2020
Extending the CSM-CERES-Beet Model to Simulate Impact of Observed Leaf Disease Damage on Sugar Beet Yield
Agronomy 2020, 10, 1930; doi:10.3390/agronomy10121930 

*TREATMENTS                        -------------FACTOR LEVELS------------
@N R O C TNAME.................... CU FL SA IC MP MI MF MR MC MT ME MH SM
 1 1 1 0 0 %  inoculum              1  1  0  1  1  0  1  0  0  0  0  1  1
 2 1 1 0 100% inoculum              1  1  0  1  1  0  1  0  0  0  0  1  1 
 3 1 1 0 0 %  no dis                1  1  0  1  1  0  1  0  0  0  0  1  1
 4 1 1 0 100% no dis                1  1  0  1  1  0  1  0  0  0  0  1  1 
 
*CULTIVARS
@C CR INGENO CNAME
 1 BS IH0001 BTS940
 
*FIELDS
@L ID_FIELD WSTA....  FLSA  FLOB  FLDT  FLDD  FLDS  FLST SLTX  SLDP  ID_SOIL    FLNAME
 1 IHKL1801 UHIH       -99   -99 DR000   -99   -99   -99 SIL    120  UHIH150003 -99
@L ...........XCRD ...........YCRD .....ELEV .............AREA .SLEN .FLWR .SLAS FLHST FHDUR
 1             -99             -99       -99               -99   -99   -99   -99   -99   -99

*INITIAL CONDITIONS
@C   PCR ICDAT  ICRT  ICND  ICRN  ICRE  ICWD ICRES ICREN ICREP ICRIP ICRID ICNAME
 1    BS 18104   -99   -99     1     1   200    20     1   -99   -99   -99 -99
@C  ICBL  SH2O  SNH4  SNO3
 1    30   .38    .3   2.4
 1    60   .38    .3   2.4
 1    90   .38    .3   2.4
 1   120   .38    .3   2.4 

*PLANTING DETAILS
@P PDATE EDATE  PPOP  PPOE  PLME  PLDS  PLRS  PLRD  PLDP  PLWT  PAGE  PENV  PLPH  SPRL                        PLNAME
 1 18104 18111  10.7   7.5     S     R    50   -99     3   -99   -99   -99   -99   -99                        pl desc
*FERTILIZERS (INORGANIC)
@F FDATE  FMCD  FACD  FDEP  FAMN  FAMP  FAMK  FAMC  FAMO  FOCD FERNAME
 1 18108 FE005 AP001    10   140   -99   -99   -99   -99   -99 me1  

*HARVEST DETAILS
@H HDATE  HSTG  HCOM HSIZE   HPC  HBPC HNAME
 1   169 GS000     H   -99   -99   -99 day after planting

*SIMULATION CONTROLS
@N GENERAL     NYERS NREPS START SDATE RSEED SNAME.................... SMODEL
 1 GE              1     1     S 18104  2150 DEFAULT SIMULATION CONTR
@N OPTIONS     WATER NITRO SYMBI PHOSP POTAS DISES  CHEM  TILL   CO2
 1 OP              Y     Y     N     N     N     Y     N     Y     M
@N METHODS     WTHER INCON LIGHT EVAPO INFIL PHOTO HYDRO NSWIT MESOM MESEV MESOL
 1 ME              M     M     E     R     S     L     R     1     G     S     2
@N MANAGEMENT  PLANT IRRIG FERTI RESID HARVS
 1 MA              R     R     R     R     D
@N OUTPUTS     FNAME OVVEW SUMRY FROPT GROUT CAOUT WAOUT NIOUT MIOUT DIOUT VBOSE CHOUT OPOUT
 1 OU              N     Y     Y     1     Y     Y     Y     Y     Y     Y     Y     N     Y

@  AUTOMATIC MANAGEMENT
@N PLANTING    PFRST PLAST PH2OL PH2OU PH2OD PSTMX PSTMN
 1 PL          18001 18001    40   100    30    40    10
@N IRRIGATION  IMDEP ITHRL ITHRU IROFF IMETH IRAMT IREFF
 1 IR             30    50   100 GS000 IR001    10     1 
@N NITROGEN    NMDEP NMTHR NAMNT NCODE NAOFF
 1 NI             30    50    25 FE001 GS000 
@N RESIDUES    RIPCN RTIME RIDEP
 1 RE            100     1    20 
@N HARVEST     HFRST HLAST HPCNP HPCNR
 1 HA              0 01001   100     0 



