*EXP.DETAILS: TXEL7901BH PENSOCOLA BAHIAGRASS AT EAGLE LAKE, TEXAS, CROW

*GENERAL
@PEOPLE
-99
@ADDRESS
-99
@SITE
TAMU Research Center, Eagle Lake, TX
@NOTES
Treatments 1-5 are original experiment treatments


*TREATMENTS                        -------------FACTOR LEVELS------------
@N R O C TNAME.................... CU FL SA IC MP MI MF MR MC MT ME MH SM
 1 1 0 0 DRYLAND -    0 KG N/HA     1  1  1  1  1  0  1  0  0  0  1  1  1
 2 1 0 0 DRYLAND -   84 KG N/HA     1  1  1  1  1  0  2  0  0  0  1  1  1
 3 1 0 0 DRYLAND -  168 KG N/HA     1  1  1  1  1  0  3  0  0  0  1  1  1
 4 1 0 0 DRYLAND -  252 KG N/HA     1  1  1  1  1  0  4  0  0  0  1  1  1
 5 1 0 0 DRYLAND -  336 KG N/HA     1  1  1  1  1  0  5  0  0  0  1  1  1

*CULTIVARS
@C CR INGENO CNAME
 1 BH UF0001 PENSACOLA

*FIELDS
@L ID_FIELD WSTA....  FLSA  FLOB  FLDT  FLDD  FLDS  FLST SLTX  SLDP  ID_SOIL    FLNAME
 1 TXEL0001 TXEL       -99     0 IB000     0     0 00000 -99    180  TXEL790001 -99
@L ...........XCRD ...........YCRD .....ELEV .............AREA .SLEN .FLWR .SLAS FLHST FHDUR
 1               0               0         0                 0     0     0     0   -99   -99
! 1 TXEL0001 TXEL       -99     0 IB000     0     0 00000 -99    180  TXEL790006 -99
! Set intial to DUL

*SOIL ANALYSIS
@A SADAT  SMHB  SMPX  SMKE  SANAME
 1 79001   -99   -99   -99  -99
@A  SABL  SADM  SAOC  SANI SAPHW SAPHB  SAPX  SAKE  SASC
 1    28   1.6     1   -99     6   -99   -99   -99   .66
 1    38   1.6   .65   -99     6   -99   -99   -99   .43
 1    56   1.5    .6   -99     6   -99   -99   -99    .4
 1    97   1.6    .4   -99     6   -99   -99   -99   .26
 1   132   1.6   .25   -99     6   -99   -99   -99   .17
 1   157   1.6   .15   -99     6   -99   -99   -99    .1
! 1    28   1.6     1   -99     6   -99   -99   -99  0.65
! 1    38   1.6   .65   -99     6   -99   -99   -99  0.41
! 1    56   1.5    .6   -99     6   -99   -99   -99  0.39
! 1    97   1.6    .4   -99     6   -99   -99   -99  0.26
! 1   132   1.6   .25   -99     6   -99   -99   -99  0.16
! 1   157   1.6   .15   -99     6   -99   -99   -99  0.10
!next is 0.70
! 1    28   1.6     1   -99     6   -99   -99   -99  0.70
! 1    38   1.6   .65   -99     6   -99   -99   -99  0.46
! 1    56   1.5    .6   -99     6   -99   -99   -99  0.42
! 1    97   1.6    .4   -99     6   -99   -99   -99  0.28
! 1   132   1.6   .25   -99     6   -99   -99   -99  0.18
! 1   157   1.6   .15   -99     6   -99   -99   -99  0.11
!next is 0.72
! 1    28   1.6     1   -99     6   -99   -99   -99  0.72
! 1    38   1.6   .65   -99     6   -99   -99   -99  0.47
! 1    56   1.5    .6   -99     6   -99   -99   -99  0.43
! 1    97   1.6    .4   -99     6   -99   -99   -99  0.29
! 1   132   1.6   .25   -99     6   -99   -99   -99  0.18
! 1   157   1.6   .15   -99     6   -99   -99   -99  0.11
!next is 0.74
! 1    28   1.6     1   -99     6   -99   -99   -99  0.74
! 1    38   1.6   .65   -99     6   -99   -99   -99  0.48
! 1    56   1.5    .6   -99     6   -99   -99   -99  0.44
! 1    97   1.6    .4   -99     6   -99   -99   -99  0.30
! 1   132   1.6   .25   -99     6   -99   -99   -99  0.19
! 1   157   1.6   .15   -99     6   -99   -99   -99  0.11
!next is 0.76
! 1    28   1.6     1   -99     6   -99   -99   -99  0.76
! 1    38   1.6   .65   -99     6   -99   -99   -99  0.49
! 1    56   1.5    .6   -99     6   -99   -99   -99  0.46
! 1    97   1.6    .4   -99     6   -99   -99   -99  0.30
! 1   132   1.6   .25   -99     6   -99   -99   -99  0.19
! 1   157   1.6   .15   -99     6   -99   -99   -99  0.11
!next 0.78
! 1    28   1.6     1   -99     6   -99   -99   -99  0.78
! 1    38   1.6   .65   -99     6   -99   -99   -99  0.51
! 1    56   1.5    .6   -99     6   -99   -99   -99  0.47
! 1    97   1.6    .4   -99     6   -99   -99   -99  0.31
! 1   132   1.6   .25   -99     6   -99   -99   -99  0.19
! 1   157   1.6   .15   -99     6   -99   -99   -99  0.11
!next 0.80
! 1    28   1.6     1   -99     6   -99   -99   -99  0.80
! 1    38   1.6   .65   -99     6   -99   -99   -99  0.52
! 1    56   1.5    .6   -99     6   -99   -99   -99  0.48
! 1    97   1.6    .4   -99     6   -99   -99   -99  0.32
! 1   132   1.6   .25   -99     6   -99   -99   -99  0.20
! 1   157   1.6   .15   -99     6   -99   -99   -99  0.12

*INITIAL CONDITIONS
@C   PCR ICDAT  ICRT  ICND  ICRN  ICRE  ICWD ICRES ICREN ICREP ICRIP ICRID ICNAME
 1    MZ 79001  1200     0     1     1   -99  1000    .8     0   100    15 -99
@C  ICBL  SH2O  SNH4  SNO3
 1    28  .204    .3    .8
 1    38  .204    .3    .8
 1    56  .398    .2    .7
 1    97  .335    .2    .5
 1   132  .335    .2    .5
 1   157  .335    .2    .5

*PLANTING DETAILS
@P PDATE EDATE  PPOP  PPOE  PLME  PLDS  PLRS  PLRD  PLDP  PLWT  PAGE  PENV  PLPH  SPRL                        PLNAME
 1 78060   -99   999   999     T     R    10     0     2  9999    60    32     1     0                        -99
!ates were split in 3 equal applications for each year on April 1, June 1, and August 1 for each year

*FERTILIZERS (INORGANIC)
@F FDATE  FMCD  FACD  FDEP  FAMN  FAMP  FAMK  FAMC  FAMO  FOCD FERNAME
 1 79091 FE001 IB001     0     0   -99   -99   -99   -99   -99 -99
 2 79091 FE001 IB001     0    28   -99   -99   -99   -99   -99 -99
 2 79152 FE001 IB001     0    28   -99   -99   -99   -99   -99 -99
 2 79213 FE001 IB001     0    28   -99   -99   -99   -99   -99 -99
 2 80092 FE001 IB001     0    28   -99   -99   -99   -99   -99 -99
 2 80153 FE001 IB001     0    28   -99   -99   -99   -99   -99 -99
 2 80214 FE001 IB001     0    28   -99   -99   -99   -99   -99 -99
 2 81091 FE001 IB001     0    28   -99   -99   -99   -99   -99 -99
 2 81152 FE001 IB001     0    28   -99   -99   -99   -99   -99 -99
 2 81213 FE001 IB001     0    28   -99   -99   -99   -99   -99 -99
 3 79091 FE001 IB001     0    56   -99   -99   -99   -99   -99 -99
 3 79152 FE001 IB001     0    56   -99   -99   -99   -99   -99 -99
 3 79213 FE001 IB001     0    56   -99   -99   -99   -99   -99 -99
 3 80092 FE001 IB001     0    56   -99   -99   -99   -99   -99 -99
 3 80153 FE001 IB001     0    56   -99   -99   -99   -99   -99 -99
 3 80214 FE001 IB001     0    56   -99   -99   -99   -99   -99 -99
 3 81091 FE001 IB001     0    56   -99   -99   -99   -99   -99 -99
 3 81152 FE001 IB001     0    56   -99   -99   -99   -99   -99 -99
 3 81213 FE001 IB001     0    56   -99   -99   -99   -99   -99 -99
 4 79091 FE001 IB001     0    84   -99   -99   -99   -99   -99 -99
 4 79152 FE001 IB001     0    84   -99   -99   -99   -99   -99 -99
 4 79213 FE001 IB001     0    84   -99   -99   -99   -99   -99 -99
 4 80092 FE001 IB001     0    84   -99   -99   -99   -99   -99 -99
 4 80153 FE001 IB001     0    84   -99   -99   -99   -99   -99 -99
 4 80214 FE001 IB001     0    84   -99   -99   -99   -99   -99 -99
 4 81091 FE001 IB001     0    84   -99   -99   -99   -99   -99 -99
 4 81152 FE001 IB001     0    84   -99   -99   -99   -99   -99 -99
 4 81213 FE001 IB001     0    84   -99   -99   -99   -99   -99 -99
 5 79091 FE001 IB001     0   112   -99   -99   -99   -99   -99 -99
 5 79152 FE001 IB001     0   112   -99   -99   -99   -99   -99 -99
 5 79213 FE001 IB001     0   112   -99   -99   -99   -99   -99 -99
 5 80092 FE001 IB001     0   112   -99   -99   -99   -99   -99 -99
 5 80153 FE001 IB001     0   112   -99   -99   -99   -99   -99 -99
 5 80214 FE001 IB001     0   112   -99   -99   -99   -99   -99 -99
 5 81091 FE001 IB001     0   112   -99   -99   -99   -99   -99 -99
 5 81152 FE001 IB001     0   112   -99   -99   -99   -99   -99 -99
 5 81213 FE001 IB001     0   112   -99   -99   -99   -99   -99 -99

*ENVIRONMENT MODIFICATIONS
@E ODATE EDAY  ERAD  EMAX  EMIN  ERAIN ECO2  EDEW  EWIND ENVNAME  
 1 78060 A   0 A   0 A   0 A   0 A   0 R 350 A   0 A   0 350 vpm CO2
 2 78060 A   0 A   0 A   0 A   0 A   0 R 700 A   0 A   0 700 vpm CO2

*HARVEST DETAILS
@H HDATE  HSTG  HCOM HSIZE   HPC  HBPC HNAME
 1 81309 GS000    HA   -99   100     0 

*SIMULATION CONTROLS
@N GENERAL     NYERS NREPS START SDATE RSEED SNAME.................... SMODEL
 1 GE              1     1     P 79001  2150 BAHIA                     PRFRM
@N OPTIONS     WATER NITRO SYMBI PHOSP POTAS DISES  CHEM  TILL   CO2
 1 OP              Y     Y     N     N     N     N     N     N     M
@N METHODS     WTHER INCON LIGHT EVAPO INFIL PHOTO HYDRO NSWIT MESOM MESEV MESOL
 1 ME              M     M     E     R     S     L     R     1     P     R     2
@N MANAGEMENT  PLANT IRRIG FERTI RESID HARVS
 1 MA              R     N     R     N     R
@N OUTPUTS     FNAME OVVEW SUMRY FROPT GROUT CAOUT WAOUT NIOUT MIOUT DIOUT VBOSE CHOUT OPOUT FMOPT
 1 OU              N     Y     Y     1     Y     Y     Y     Y     N     Y     Y     N     N     A

@  AUTOMATIC MANAGEMENT
@N PLANTING    PFRST PLAST PH2OL PH2OU PH2OD PSTMX PSTMN
 1 PL          78050 81309    40   100    30    40    10
@N IRRIGATION  IMDEP ITHRL ITHRU IROFF IMETH IRAMT IREFF
 1 IR             30    50   100 IB001 IB001    10     0
@N NITROGEN    NMDEP NMTHR NAMNT NCODE NAOFF
 1 NI             30    50    25 IB001 IB001
@N RESIDUES    RIPCN RTIME RIDEP
 1 RE            100     1    20
@N HARVEST     HFRST HLAST HPCNP HPCNR
 1 HA              0 81350   100     0



