*EXP.DETAILS: CAPE2002SN 2020 Yield Forecast - using forecast runmode 
!Hypothetical wheat field near Petropavl, Kazakhstan, 2020

*GENERAL
@PEOPLE
-99
@ADDRESS
-99
@SITE
-99
@ PAREA  PRNO  PLEN  PLDR  PLSP  PLAY HAREA  HRNO  HLEN  HARM.........
    -99   -99   -99   -99   -99   -99   -99   -99   -99   -99

*TREATMENTS                        -------------FACTOR LEVELS------------
@N R O C TNAME.................... CU FL SA IC MP MI MF MR MC MT ME MH SM
 1 1 1 0 WH forecast Jun 1, 2020    1  1  0  1  1  0  0  0  0  0  0  0  1
 2 1 1 0 WH forecast Jul 1, 2020    1  1  0  1  1  0  0  0  0  0  0  0  2
 3 1 1 0 WH forecast Aug 1, 2020    1  1  0  1  1  0  0  0  0  0  0  0  3

*CULTIVARS
@C CR INGENO CNAME
 1 WH KZ0001 North KAZAK1

*FIELDS
@L ID_FIELD WSTA....  FLSA  FLOB  FLDT  FLDD  FLDS  FLST SLTX  SLDP  ID_SOIL    FLNAME
 1 CAPE0001 CAPE8437   -99   -99   -99   -99   -99   -99 -99    -99  KZ01826030 -99
@L ...........XCRD ...........YCRD .....ELEV .............AREA .SLEN .FLWR .SLAS FLHST FHDUR
 1             -99             -99       -99               -99   -99   -99   -99 FH201    50

*INITIAL CONDITIONS
@C   PCR ICDAT  ICRT  ICND  ICRN  ICRE  ICWD ICRES ICREN ICREP ICRIP ICRID ICNAME
 1    WH 20001   500     0     0     0   -99  2000    .6   -99   -99   -99 -99
@C  ICBL  SH2O  SNH4  SNO3
 1     5  .186    .3     3
 1    15  .197    .3     3
 1    30  .211    .3     3
 1    60  .225    .3     3
 1   100  .224    .3     3
 1   200  .213    .3     3

*PLANTING DETAILS
@P PDATE EDATE  PPOP  PPOE  PLME  PLDS  PLRS  PLRD  PLDP  PLWT  PAGE  PENV  PLPH  SPRL                        PLNAME
 1 20135   -99   200   200     S     R    16     0     4   -99   -99   -99   -99   -99                        -99

*SIMULATION CONTROLS
@N GENERAL     NYERS NREPS START SDATE RSEED SNAME.................... SMODEL
 1 GE             36     1     S 20001  2150 DEFAULT SIMULATION CONTR
@N OPTIONS     WATER NITRO SYMBI PHOSP POTAS DISES  CHEM  TILL   CO2
 1 OP              Y     Y     N     N     N     N     N     N     M
@N METHODS     WTHER INCON LIGHT EVAPO INFIL PHOTO HYDRO NSWIT MESOM MESEV MESOL
 1 ME              M     M     E     R     S     L     R     1     P     R     2
@N MANAGEMENT  PLANT IRRIG FERTI RESID HARVS
 1 MA              A     A     R     R     M
@N OUTPUTS     FNAME OVVEW SUMRY FROPT GROUT CAOUT WAOUT NIOUT MIOUT DIOUT VBOSE CHOUT OPOUT FMOPT
 1 OU              Y     N     Y     1     N     N     N     N     N     N     0     N     N     A

@  AUTOMATIC MANAGEMENT
@N PLANTING    PFRST PLAST PH2OL PH2OU PH2OD PSTMX PSTMN
 1 PL          20135 20154    40   100    30    40    10
@N IRRIGATION  IMDEP ITHRL ITHRU IROFF IMETH IRAMT IREFF
 1 IR             30    50   100 GS000 IR001    10     1
@N NITROGEN    NMDEP NMTHR NAMNT NCODE NAOFF
 1 NI             30    50    25 FE001 GS000
@N RESIDUES    RIPCN RTIME RIDEP
 1 RE            100     1    20
@N HARVEST     HFRST HLAST HPCNP HPCNR
 1 HA          20001 20365   100     0
@N SIMDATES    ENDAT    SDUR   FODAT  FSTRYR  FENDYR FWFILE           FONAME
 1 SI            -99     -99 2020153     -99     -99 -99              Jun 1, 2020 forecast

@N GENERAL     NYERS NREPS START SDATE RSEED SNAME.................... SMODEL
 2 GE             36     1     S 20001  2150 DEFAULT SIMULATION CONTR
@N OPTIONS     WATER NITRO SYMBI PHOSP POTAS DISES  CHEM  TILL   CO2
 2 OP              Y     Y     N     N     N     N     N     N     M
@N METHODS     WTHER INCON LIGHT EVAPO INFIL PHOTO HYDRO NSWIT MESOM MESEV MESOL
 2 ME              M     M     E     R     S     L     R     1     P     R     2
@N MANAGEMENT  PLANT IRRIG FERTI RESID HARVS
 2 MA              A     A     R     R     M
@N OUTPUTS     FNAME OVVEW SUMRY FROPT GROUT CAOUT WAOUT NIOUT MIOUT DIOUT VBOSE CHOUT OPOUT FMOPT
 2 OU              Y     N     Y     1     N     N     N     N     N     N     0     N     N     A

@  AUTOMATIC MANAGEMENT
@N PLANTING    PFRST PLAST PH2OL PH2OU PH2OD PSTMX PSTMN
 2 PL          20135 20154    40   100    30    40    10
@N IRRIGATION  IMDEP ITHRL ITHRU IROFF IMETH IRAMT IREFF
 2 IR             30    50   100 GS000 IR001    10     1
@N NITROGEN    NMDEP NMTHR NAMNT NCODE NAOFF
 2 NI             30    50    25 FE001 GS000
@N RESIDUES    RIPCN RTIME RIDEP
 2 RE            100     1    20
@N HARVEST     HFRST HLAST HPCNP HPCNR
 2 HA          20001 20365   100     0
@N SIMDATES    ENDAT    SDUR   FODAT  FSTRYR  FENDYR FWFILE           FONAME
 2 SI            -99     -99 2020183     -99     -99 -99              Jul 1, 2020 forecast

@N GENERAL     NYERS NREPS START SDATE RSEED SNAME.................... SMODEL
 3 GE             36     1     S 20001  2150 DEFAULT SIMULATION CONTR
@N OPTIONS     WATER NITRO SYMBI PHOSP POTAS DISES  CHEM  TILL   CO2
 3 OP              Y     Y     N     N     N     N     N     N     M
@N METHODS     WTHER INCON LIGHT EVAPO INFIL PHOTO HYDRO NSWIT MESOM MESEV MESOL
 3 ME              M     M     E     R     S     L     R     1     P     R     2
@N MANAGEMENT  PLANT IRRIG FERTI RESID HARVS
 3 MA              A     A     R     R     M
@N OUTPUTS     FNAME OVVEW SUMRY FROPT GROUT CAOUT WAOUT NIOUT MIOUT DIOUT VBOSE CHOUT OPOUT FMOPT
 3 OU              Y     N     Y     1     N     N     N     N     N     N     0     N     N     A

@  AUTOMATIC MANAGEMENT
@N PLANTING    PFRST PLAST PH2OL PH2OU PH2OD PSTMX PSTMN
 3 PL          20135 20154    40   100    30    40    10
@N IRRIGATION  IMDEP ITHRL ITHRU IROFF IMETH IRAMT IREFF
 3 IR             30    50   100 GS000 IR001    10     1
@N NITROGEN    NMDEP NMTHR NAMNT NCODE NAOFF
 3 NI             30    50    25 FE001 GS000
@N RESIDUES    RIPCN RTIME RIDEP
 3 RE            100     1    20
@N HARVEST     HFRST HLAST HPCNP HPCNR
 3 HA          20001 20365   100     0
@N SIMDATES    ENDAT    SDUR   FODAT  FSTRYR  FENDYR FWFILE           FONAME
 3 SI            -99     -99 2020214     -99     -99 -99              Aug 1, 2020 forecast
