*SOILS: Test2D

!2D model testing

*2DTEST0001  SE          SL       160  Silty Loam 
@SITE        COUNTRY          LAT     LONG SCS FAMILY
 NM          China           42.95  119.07 -99
@ SCOM  SALB  SLU1  SLDR  SLRO  SLNF  SLPF  SMHB  SMPX  SMKE
     R   .13     9   .10    61  0.95     1  B001  A001  B001
@  SLB  SLMH  SLLL  SDUL  SSAT  SRGF  SSKS  SBDM  SLOC  SLCL  SLSI  SLCF  SLNI  SLHW  SLHB  SCEC  SADC
    20   -99  .183  .279  .356     1  1.59  1.41  1.71  27.8  35.4   -99   -99   8.5   -99   -99   -99
    40   -99  .225  .348  .473  .449   .53  1.47  1.49  44.5  41.1   -99   -99   8.5   -99   -99   -99
    60   -99  .206  .332  .454  .268   .68  1.53  1.27  18.1  62.5   -99   -99   8.5   -99   -99   -99
    80   -99  .181  .325  .434  .147   .68  1.52   .84  21.7  70.5   -99   -99   8.5   -99   -99   -99
   100   -99  .181  .325  .434  .105   .68  1.52   .42  22.8  68.1   -99   -99   8.5   -99   -99   -99
   120   -99  .181  .325  .434  .101   .09  1.52   .11  22.8  68.1   -99   -99   8.5   -99   -99   -99
   140   -99  .181  .325  .434  .014   .09  1.52    .1  22.8  68.1   -99   -99   8.5   -99   -99   -99
   160   -99  .181  .325  .434  .014   .09  1.52    .1  22.8  68.1   -99   -99   8.5   -99   -99   -99
@  SLB  SLPX  SLPT  SLPO CACO3  SLAL  SLFE  SLMN  SLBS  SLPA  SLPB  SLKE  SLMG  SLNA  SLSU  SLEC  SLCA
    20 -99.0 -99.0 -99.0 -99.0 -99.0 -99.0 -99.0 -99.0 -99.0 -99.0   -99  -99. -99.0 -99.0 -99.0  -99.
    40 -99.0 -99.0 -99.0 -99.0 -99.0 -99.0 -99.0 -99.0 -99.0 -99.0   -99  -99. -99.0 -99.0 -99.0  -99.
    60 -99.0 -99.0 -99.0 -99.0 -99.0 -99.0 -99.0 -99.0 -99.0 -99.0   -99  -99. -99.0 -99.0 -99.0  -99.
    80 -99.0 -99.0 -99.0 -99.0 -99.0 -99.0 -99.0 -99.0 -99.0 -99.0   -99  -99. -99.0 -99.0 -99.0  -99.
   100 -99.0 -99.0 -99.0 -99.0 -99.0 -99.0 -99.0 -99.0 -99.0 -99.0   -99  -99. -99.0 -99.0 -99.0  -99.
   120 -99.0 -99.0 -99.0 -99.0 -99.0 -99.0 -99.0 -99.0 -99.0 -99.0   -99  -99. -99.0 -99.0 -99.0  -99.
   140 -99.0 -99.0 -99.0 -99.0 -99.0 -99.0 -99.0 -99.0 -99.0 -99.0   -99  -99. -99.0 -99.0 -99.0  -99.
   160 -99.0 -99.0 -99.0 -99.0 -99.0 -99.0 -99.0 -99.0 -99.0 -99.0   -99  -99. -99.0 -99.0 -99.0  -99.
@  SLB ALFVG   MVG   NVG WCRES
    20 0.011 0.159 1.189 0.070
    40 0.016 0.145 1.170 0.050
    60 0.015 0.143 1.167 0.023
    80 0.010 0.166 1.199 0.020
   100 0.010 0.166 1.199 0.020      
   120 0.010 0.166 1.199 0.020      
   140 0.010 0.166 1.199 0.020      
   160 0.010 0.166 1.199 0.020      
