*EXP.DETAILS: TS2D1501MZ Test of 2D model

*GENERAL
@PEOPLE
 Cheryl Porter

@NOTES
 Hypothetical tomato experiment to illustrate bed configuration, drip irrigation, 2D model
 
*TREATMENTS                        -------------FACTOR LEVELS------------
@N R O C TNAME.................... CU FL SA IC MP MI MF MR MC MT ME MH SM
 1 1 1 0 2D, flat, No PM            1  1  0  1  1  1  1  0  0  1  0  1  1
 2 1 1 0 2D, flat, Part PM          1  2  0  1  1  1  1  0  0  1  0  1  1
 3 1 1 0 2D, flat, Full PM          1  3  0  1  1  1  1  0  0  1  0  1  1
 4 1 1 0 2D, raised, No PM          1  4  0  1  1  1  1  0  0  1  0  1  1
 5 1 1 0 2D, raised, Part PM        1  5  0  1  1  1  1  0  0  1  0  1  1

*CULTIVARS
@C CR INGENO CNAME
 1 TM TM0007 Sunny S-D 2010 Cal

*FIELDS
@L ID_FIELD WSTA....  FLSA  FLOB  FLDT  FLDD  FLDS  FLST SLTX  SLDP  ID_SOIL    FLNAME
 1 TS2D0001 TS2D1501   -99   -99 -99     -99   -99 -99   SIL    160  2DTEST0001 2D, flat, No PM    
 2 TS2D0001 TS2D1501   -99   -99 -99     -99   -99 -99   SIL    160  2DTEST0001 2D, flat, Part PM  
 3 TS2D0001 TS2D1501   -99   -99 -99     -99   -99 -99   SIL    160  2DTEST0001 2D, flat, Full PM  
 4 TS2D0001 TS2D1501   -99   -99 -99     -99   -99 -99   SIL    160  2DTEST0001 2D, raised, No PM  
 5 TS2D0001 TS2D1501   -99   -99 -99     -99   -99 -99   SIL    160  2DTEST0001 2D, raised, Part PM
@L ...........XCRD ...........YCRD .....ELEV .............AREA .SLEN .FLWR .SLAS FLHST FHDUR
 1              40             116       625               -99   -99   -99   -99   -99   -99
 2              40             116       625               -99   -99   -99   -99   -99   -99
 3              40             116       625               -99   -99   -99   -99   -99   -99
 4              40             116       625               -99   -99   -99   -99   -99   -99
 5              40             116       625               -99   -99   -99   -99   -99   -99
!2023-07-14 chp changed order of PMALB, BDWD, BDHT so that 1D and 2D models can use the same FileXs.
@L PMALB  BDWD  BDHT
 1   -99   -99   -99    !2D, flat, No PM    
 2   0.3    35     0    !2D, flat, Part PM  
 3   0.3    70     0    !2D, flat, Full PM  
 4   -99    35    25    !2D, raised, No PM  
 5   0.3    35    25    !2D, raised, Part PM

*INITIAL CONDITIONS
@C   PCR ICDAT  ICRT  ICND  ICRN  ICRE  ICWD ICRES ICREN ICREP ICRIP ICRID ICNAME
 1    MZ 15121   500   -99     1     1   -99   -99    .8   -99   -99   -99 -99
@C  ICBL  SH2O  SNH4  SNO3
 1    20  .198    .5   5.4
 1    40  .267    .5     5
 1    60  .297    .5   3.9
 1    80  .302    .5   3.4
 1   100  .302    .5   2.9
 1   120  .302    .5     2
 1   140  .302    .5   1.4
 1   160  .302    .5   1.4

*PLANTING DETAILS
@P PDATE EDATE  PPOP  PPOE  PLME  PLDS  PLRS  PLRD  PLDP  PLWT  PAGE  PENV  PLPH  SPRL                        PLNAME
 1 15123 15138  8.33  7.54     S     R    70    15     5   -99   -99   -99   -99   -99                        

*IRRIGATION AND WATER MANAGEMENT
@I  EFIR  IDEP  ITHR  IEPT  IOFF  IAME  IAMT IRNAME
 1     1   -99   -99   -99   -99   -99   -99 
@I  IRLN IRSPC IROFS IRDEP
 1     1    40     0     0   !Irrigation line
 1     2    30    15    10   !Fertigation line
@I IDATE  IROP IRVAL IRSTR IRDUR  IRLN
 1 15124 IR005 0.383  8:00 434.6     1
 1 15152 IR005 0.383  8:00   120     1
 1 15152 IR005 0.383 17:00   120     1
 1 15179 IR005 0.200  8:00   120     2
 1 15179 IR005 0.383 17:00   240     1
 1 15192 IR005 0.200  8:00   120     2
 1 15192 IR005 0.383 17:00   240     1
 1 15202 IR005 0.383  8:00 330.3     1
 1 15218 IR005 0.200  8:00   120     2
 1 15218 IR005 0.383 17:00   240     1
 1 15231 IR005 0.200  8:00   120     2
 1 15231 IR005 0.383 17:00   240     1
 1 15240 IR005 0.383  8:00 173.8     1
 1 15254 IR005 0.200  8:00   120     2
 1 15254 IR005 0.383 17:00   240     1 

*FERTILIZERS (INORGANIC)
@F FDATE  FMCD  FACD  FDEP  FAMN  FAMP  FAMK  FAMC  FAMO  FOCD FERNAME
 1 15124 FE005 AP004     5    68     0     0     0     0   -99 -99 
 1 15124 FE014 AP004     5     0    68     0     0     0   -99 -99 
 1 15124 FE018 AP004     5     0     0    68     0     0   -99 -99 
 1 15179 FE016 AP005     0     0     0    40     0     0   -99 -99 
 1 15179 FE007 AP005     0     2    20     0     0     0   -99 -99 
 1 15179 FE005 AP005     0    66     0     0     0     0   -99 -99 
 1 15192 FE016 AP005     0     0     0    27     0     0   -99 -99 
 1 15192 FE007 AP005     0     2    20     0     0     0   -99 -99 
 1 15192 FE005 AP005     0    83     0     0     0     0   -99 -99 
 1 15218 FE005 AP005     0    48     0     0     0     0   -99 -99 
 1 15218 FE007 AP005     0     3    27     0     0     0   -99 -99 
 1 15231 FE005 AP005     0    51     0     0     0     0   -99 -99 
 1 15254 FE005 AP005     0    17     0     0     0     0   -99 -99 

*HARVEST DETAILS
@H HDATE  HSTG  HCOM HSIZE   HPC  HBPC HNAME
 1 15275   -99   -99   -99   -99   -99 N0

*TILLAGE AND ROTATIONS
@T TDATE TIMPL  TDEP TNAME
 1 15123 TI003    20 -99

*SIMULATION CONTROLS
@N GENERAL     NYERS NREPS START SDATE RSEED SNAME.................... SMODEL
 1 GE              1     1     S 15121  2150 2D - HYDRO = 'G' 
@N OPTIONS     WATER NITRO SYMBI PHOSP POTAS DISES  CHEM  TILL   CO2
 1 OP              Y     Y     N     N     N     N     N     Y     M
@N METHODS     WTHER INCON LIGHT EVAPO INFIL PHOTO HYDRO NSWIT MESOM MESEV MESOL
 1 ME              M     M     E     R     S     C     G     1     G     S     3
@N MANAGEMENT  PLANT IRRIG FERTI RESID HARVS
 1 MA              R     R     R     R     R
@N OUTPUTS     FNAME OVVEW SUMRY FROPT GROUT CAOUT WAOUT NIOUT MIOUT DIOUT VBOSE CHOUT OPOUT
 1 OU              N     Y     Y     1     Y     N     Y     Y     N     N     D     N     Y

@  AUTOMATIC MANAGEMENT
@N PLANTING    PFRST PLAST PH2OL PH2OU PH2OD PSTMX PSTMN
 1 PL          82050 82064    40   100    30    40    10
@N IRRIGATION  IMDEP ITHRL ITHRU IROFF IMETH IRAMT IREFF
 1 IR             30    50   100 GS000 IR001    10  1.00
@N NITROGEN    NMDEP NMTHR NAMNT NCODE NAOFF
 1 NI             30    50    25 FE001 GS000
@N RESIDUES    RIPCN RTIME RIDEP
 1 RE            100     1    20
@N HARVEST     HFRST HLAST HPCNP HPCNR
 1 HA              0 83057   100     0
