*EXP.DETAILS: TXHW1201CO 2012 TX, Halfway, irrigation
*General
@PEOPLE
 Ale, Srinivasulu
@ADDRESS
 Texas A&M AgriLife Research, P.O. Box 1658 | Vernon, TX 76385 (Ph)(940) 552-9941 x 232 sriniale@ag.tamu.edu
@SITE
 HW-Halfway, TX  Location 34.15N;102.95W;1038m
@   PAREA  PRNO  PLEN  PLDR  PLSP  PLAY HAREA  HRNO  HLEN  HARM
    683.0    16  43.0         101       341.0     8  43.0
@NOTES
! References:
! 
! Bordovsky, J. P., J. T. Mustian, G. L. Ritchie, K. L. Lewis, J. T. Mustian, G.
! L. Ritchie, K. L. Lewis. 2015. Cotton irrigation timing with variable seasonal
! irrigation capacities in the Texas South Plains. Appl. Eng. Agric. 31(6):
! 883-897. DOI 10.13031/aea.31.10953
! 
! Adhikari, P., A. S. Ale, J. P. Bordovsky, K. R. Thorp, N. R. Modala, N. Rajan,
! E. M. Barnes. 2016. Simulating future climate change impacts on seed cotton
! yield in the Texas High Plains using the CSM-CROPGRO-Cotton model. Agric. Water
! Management 164: 317-330. http://dx.doi.org/10.1016/j.agwat.2015.10.011
! 
! Data supplied by Bordovsky; data files created by Adhikari under direction of
! Ale; files modified by Gail Wilkerson, NCSU, gail_wilkerson@ncsu.edu (21 Mar 2018)
!
! Note that rooting depth is limited by soil water falling below the wilting
! point in lower layers. It took a while to figure out why rooting depth was not
! determined by SRGF in soil file. This is related to choosing option S for
! MESEV--this routine allows bare soil ET to pull water all the way from the
! bottom of the profile, even below the wilting point. I'm not convinced that
! soil water should ever drop below wilting point in these lower layers. In the
! model, soil evaporation moves water up from all layers, even 210 cm down, prior
! to planting, when simulation starts on Jan. 1. Seems like there should be a
! limit on this to just the top 20-30 cm max. I decided to leave initial soil
! water low enough for this to happen primarily because having these different
! rooting depths for different years gave such good fit to the data, and there
! was very little rainfall to fill up the lower layers of the soil profile during
! the winter each year. So maybe soil water didn't get below the wilting point,
! but maybe it got down to the wilting point at the end of one growing season,
! with insufficient water in the winter, or irrigation, to fill these lower
! layers back up. Interesting question for future research, if no information in
! literature that I've missed. Gail Wilkerson (4/5/2018)

*TREATMENTS
@N R O C TNAME.................... CU FL SA IC MP MI MF MR MC MT ME MH SM
 1 1 0 0 HHH                        1  1  1  1  1  1  1  0  0  1  0  1  1
 2 1 0 0 HHM                        1  1  1  1  1  2  1  0  0  1  0  1  1
 3 1 0 0 HHL                        1  1  1  1  1  3  1  0  0  1  0  1  1
 4 1 0 0 HMH                        1  1  1  1  1  4  1  0  0  1  0  1  1
 5 1 0 0 HMM                        1  1  1  1  1  5  1  0  0  1  0  1  1
 6 1 0 0 HML                        1  1  1  1  1  6  1  0  0  1  0  1  1
 7 1 0 0 HLH                        1  1  1  1  1  7  1  0  0  1  0  1  1
 8 1 0 0 HLM                        1  1  1  1  1  8  1  0  0  1  0  1  1
 9 1 0 0 HLL                        1  1  1  1  1  9  1  0  0  1  0  1  1
10 1 0 0 MHH                        1  1  1  1  1 10  1  0  0  1  0  1  1
11 1 0 0 MHM                        1  1  1  1  1 11  1  0  0  1  0  1  1
12 1 0 0 MHL                        1  1  1  1  1 12  1  0  0  1  0  1  1
13 1 0 0 MMH                        1  1  1  1  1 13  1  0  0  1  0  1  1
14 1 0 0 MMM                        1  1  1  1  1 14  1  0  0  1  0  1  1
15 1 0 0 MML                        1  1  1  1  1 15  1  0  0  1  0  1  1
16 1 0 0 MLH                        1  1  1  1  1 16  1  0  0  1  0  1  1
17 1 0 0 MLM                        1  1  1  1  1 17  1  0  0  1  0  1  1
18 1 0 0 MLL                        1  1  1  1  1 18  1  0  0  1  0  1  1
19 1 0 0 LHH                        1  1  1  1  1 19  1  0  0  1  0  1  1
20 1 0 0 LHM                        1  1  1  1  1 20  1  0  0  1  0  1  1
21 1 0 0 LHL                        1  1  1  1  1 21  1  0  0  1  0  1  1
22 1 0 0 LMH                        1  1  1  1  1 22  1  0  0  1  0  1  1
23 1 0 0 LMM                        1  1  1  1  1 23  1  0  0  1  0  1  1
24 1 0 0 LML                        1  1  1  1  1 24  1  0  0  1  0  1  1
25 1 0 0 LLH                        1  1  1  1  1 25  1  0  0  1  0  1  1
26 1 0 0 LLM                        1  1  1  1  1 26  1  0  0  1  0  1  1
27 1 0 0 LLL                        1  1  1  1  1 27  1  0  0  1  0  1  1

*CULTIVARS
@C CR INGENO CNAME...........
 1 CO CO0028 FiberMax 9680B2R

*FIELDS
@L ID_FIELD WSTA....  FLSA  FLOB  FLDT  FLDD  FLDS  FLST SLTX   SLDP ID_SOIL
 1 TXHW0001 TXHW1201 -99     -99 DR000   -99   -99 0     CL     210. TXHW100001
@L ...........XCRD ...........YCRD .....ELEV .............AREA .SLEN .FLWR .SLAS FLHST FHDUR
 1        34.35000      -101.95100   1038.00               -99   -99   -99   -99

*SOIL ANALYSIS
@A SADAT  SMHB  SMPX  SMKE SANAME........................................
 1 12253 SA011 -99   -99   HHH

*INITIAL CONDITIONS
@C   PCR ICDAT  ICRT  ICND  ICRN  ICRE  ICWD ICRES ICREN ICREP ICRIP ICRID
 1    CO 12001   -99   -99  0.00  0.00   -99   -99   -99   -99   -99   -99
@C  ICBL  SH2O  SNH4  SNO3
 1    5. 0.180   0.3  40.0
 1   15. 0.180   0.3  40.0
 1   30. 0.180   0.3  40.0
 1   45. 0.180   0.3  40.0
 1   60. 0.180   0.3  40.0
 1   90. 0.180   0.3  40.0
 1  120. 0.180   0.3   6.0
 1  150. 0.180   0.3   4.0
 1  180. 0.180   0.3   2.0
 1  210. 0.180   0.3   0.1

*PLANTING DETAILS
@P PDATE EDATE  PPOP  PPOE  PLME  PLDS  PLRS  PLRD  PLDP  PLWT  PAGE  PENV  PLPH  SPRL
 1 12130   -99  12.2  12.2     S     R 100.0   -99   3.8   -99   -99   -99   -99   -99

*IRRIGATION AND WATER MANAGEMENT
@I  EFIR  IDEP  ITHR  IEPT  IOFF  IAME  IAMT
 1  1.00   30.   30.  100. GS000 IR005   10.
@I IDATE  IROP IRVAL
 1 12117 IR004  12.7
 1 12119 IR004  12.7
 1 12120 IR004  10.2
 1 12121 IR004  10.2
 1 12122 IR004   9.1
 1 12123 IR004   9.1
 1 12124 IR004   9.1
 1 12131 IR004  18.5
 1 12178 IR004  12.7
 1 12179 IR004  12.7
 1 12180 IR004  12.7
 1 12181 IR004  12.7
 1 12183 IR004  12.7
 1 12184 IR004  12.7
 1 12186 IR004  12.7
 1 12187 IR004  12.7
 1 12190 IR004   6.4
 1 12191 IR004   6.4
 1 12196 IR004   5.1
 1 12197 IR004   5.1
 1 12198 IR004   5.1
 1 12199 IR004   5.1
 1 12200 IR004   5.1
 1 12201 IR004   5.1
 1 12202 IR004   5.1
 1 12203 IR004   5.1
 1 12204 IR004   5.1
 1 12205 IR004   6.4
 1 12206 IR004   6.4
 1 12207 IR004   6.4
 1 12208 IR004   6.4
 1 12209 IR004   6.4
 1 12210 IR004   6.4
 1 12211 IR004   6.4
 1 12212 IR004   6.4
 1 12213 IR004   6.4
 1 12214 IR004   6.4
 1 12215 IR004   6.4
 1 12216 IR004   6.4
 1 12217 IR004   6.4
 1 12218 IR004   6.4
 1 12219 IR004   6.4
 1 12220 IR004   6.4
 1 12221 IR004   6.4
 1 12222 IR004   6.4
 1 12223 IR004   6.4
 1 12224 IR004   6.4
 1 12225 IR004   6.4
 1 12226 IR004   6.4
 1 12227 IR004   6.4
 1 12228 IR004   6.4
 1 12229 IR004   6.4
 1 12230 IR004   6.4
 1 12231 IR004   6.4
 1 12232 IR004   6.4
 1 12238 IR004   6.4
 1 12239 IR004   6.4
 1 12243 IR004   6.4
 1 12245 IR004   6.4
 1 12247 IR004   6.4
@I  EFIR  IDEP  ITHR  IEPT  IOFF  IAME  IAMT
 2  1.00   30.   30.  100. GS000 IR005   10.
@I IDATE  IROP IRVAL
 2 12117 IR004  12.7
 2 12119 IR004  12.7
 2 12120 IR004  10.2
 2 12121 IR004  10.2
 2 12122 IR004   9.1
 2 12123 IR004   9.1
 2 12124 IR004   9.1
 2 12131 IR004  18.5
 2 12178 IR004  12.7
 2 12179 IR004  12.7
 2 12180 IR004  12.7
 2 12181 IR004  12.7
 2 12183 IR004  12.7
 2 12184 IR004  12.7
 2 12186 IR004  12.7
 2 12187 IR004  12.7
 2 12190 IR004   6.4
 2 12191 IR004   6.4
 2 12196 IR004   5.1
 2 12197 IR004   5.1
 2 12198 IR004   5.1
 2 12199 IR004   5.1
 2 12200 IR004   5.1
 2 12201 IR004   5.1
 2 12202 IR004   5.1
 2 12203 IR004   5.1
 2 12204 IR004   5.1
 2 12205 IR004   6.4
 2 12206 IR004   6.4
 2 12207 IR004   6.4
 2 12208 IR004   6.4
 2 12209 IR004   6.4
 2 12210 IR004   6.4
 2 12211 IR004   6.4
 2 12212 IR004   6.4
 2 12213 IR004   6.4
 2 12214 IR004   6.4
 2 12215 IR004   6.4
 2 12216 IR004   6.4
 2 12217 IR004   6.4
 2 12219 IR004   6.4
 2 12221 IR004   6.4
 2 12223 IR004   6.4
 2 12225 IR004   6.4
 2 12227 IR004   6.4
 2 12229 IR004   6.4
 2 12231 IR004   6.4
 2 12233 IR004   6.4
 2 12235 IR004   6.4
 2 12238 IR004   6.4
 2 12240 IR004   6.4
 2 12243 IR004   6.4
 2 12245 IR004   6.4
 2 12247 IR004   6.4
@I  EFIR  IDEP  ITHR  IEPT  IOFF  IAME  IAMT
 3  1.00   30.   30.  100. GS000 IR005   10.
@I IDATE  IROP IRVAL
 3 12117 IR004  12.7
 3 12119 IR004  12.7
 3 12120 IR004  10.2
 3 12121 IR004  10.2
 3 12122 IR004   9.1
 3 12123 IR004   9.1
 3 12124 IR004   9.1
 3 12131 IR004  18.5
 3 12178 IR004  12.7
 3 12179 IR004  12.7
 3 12180 IR004  12.7
 3 12180 IR004  12.7
 3 12183 IR004  12.7
 3 12184 IR004  12.7
 3 12186 IR004  12.7
 3 12187 IR004  12.7
 3 12190 IR004   6.4
 3 12192 IR004   6.4
 3 12196 IR004   5.1
 3 12197 IR004   5.1
 3 12198 IR004   5.1
 3 12199 IR004   5.1
 3 12200 IR004   5.1
 3 12201 IR004   5.1
 3 12202 IR004   5.1
 3 12203 IR004   5.1
 3 12204 IR004   5.1
 3 12205 IR004   6.4
 3 12206 IR004   6.4
 3 12207 IR004   6.4
 3 12208 IR004   6.4
 3 12209 IR004   6.4
 3 12210 IR004   6.4
 3 12211 IR004   6.4
 3 12212 IR004   6.4
 3 12213 IR004   6.4
 3 12214 IR004   6.4
 3 12215 IR004   6.4
 3 12216 IR004   6.4
@I  EFIR  IDEP  ITHR  IEPT  IOFF  IAME  IAMT
 4  1.00   30.   30.  100. GS000 IR005   10.
@I IDATE  IROP IRVAL
 4 12117 IR004  12.7
 4 12119 IR004  12.7
 4 12120 IR004  10.2
 4 12121 IR004  10.2
 4 12122 IR004   9.1
 4 12123 IR004   9.1
 4 12124 IR004   9.1
 4 12131 IR004  18.5
 4 12178 IR004  12.7
 4 12179 IR004  12.7
 4 12180 IR004  12.7
 4 12181 IR004  12.7
 4 12183 IR004  12.7
 4 12184 IR004  12.7
 4 12186 IR004  12.7
 4 12187 IR004  12.7
 4 12190 IR004   6.4
 4 12191 IR004   6.4
 4 12196 IR004   3.2
 4 12197 IR004   3.2
 4 12198 IR004   3.2
 4 12199 IR004   3.2
 4 12200 IR004   3.2
 4 12201 IR004   3.2
 4 12202 IR004   3.2
 4 12203 IR004   3.2
 4 12204 IR004   3.2
 4 12205 IR004   6.4
 4 12207 IR004   6.4
 4 12209 IR004   6.4
 4 12211 IR004   6.4
 4 12213 IR004   6.4
 4 12215 IR004   6.4
 4 12217 IR004   6.4
 4 12218 IR004   6.4
 4 12219 IR004   6.4
 4 12220 IR004   6.4
 4 12219 IR004   6.4
 4 12222 IR004   6.4
 4 12223 IR004   6.4
 4 12224 IR004   6.4
 4 12225 IR004   6.4
 4 12226 IR004   6.4
 4 12227 IR004   6.4
 4 12228 IR004   6.4
 4 12229 IR004   6.4
 4 12230 IR004   6.4
 4 12231 IR004   6.4
 4 12232 IR004   6.4
 4 12233 IR004   6.4
 4 12234 IR004   6.4
 4 12235 IR004   6.4
 4 12236 IR004   6.4
 4 12238 IR004   6.4
 4 12239 IR004   6.4
 4 12240 IR004   6.4
 4 12241 IR004   6.4
 4 12243 IR004   6.4
 4 12245 IR004   6.4
 4 12247 IR004   6.4
@I  EFIR  IDEP  ITHR  IEPT  IOFF  IAME  IAMT
 5  1.00   30.   30.  100. GS000 IR005   10.
@I IDATE  IROP IRVAL
 5 12117 IR004  12.7
 5 12119 IR004  12.7
 5 12120 IR004  10.2
 5 12123 IR004  10.2
 5 12124 IR004   9.1
 5 12125 IR004   9.1
 5 12126 IR004   9.1
 5 12133 IR004  18.5
 5 12178 IR004  12.7
 5 12179 IR004  12.7
 5 12180 IR004  12.7
 5 12181 IR004  12.7
 5 12183 IR004  12.7
 5 12185 IR004  12.7
 5 12186 IR004  12.7
 5 12189 IR004  12.7
 5 12192 IR004   6.4
 5 12193 IR004   6.4
 5 12196 IR004   3.2
 5 12197 IR004   3.2
 5 12198 IR004   3.2
 5 12199 IR004   3.2
 5 12200 IR004   3.2
 5 12201 IR004   3.2
 5 12202 IR004   3.2
 5 12203 IR004   3.2
 5 12204 IR004   3.2
 5 12205 IR004   6.4
 5 12207 IR004   6.4
 5 12209 IR004   6.4
 5 12211 IR004   6.4
 5 12213 IR004   6.4
 5 12215 IR004   6.4
 5 12217 IR004   6.4
 5 12219 IR004   6.4
 5 12221 IR004   6.4
 5 12223 IR004   6.4
 5 12225 IR004   6.4
 5 12227 IR004   6.4
 5 12229 IR004   6.4
 5 12231 IR004   6.4
 5 12233 IR004   6.4
 5 12235 IR004   6.4
 5 12238 IR004   6.4
 5 12240 IR004   6.4
 5 12243 IR004   6.4
 5 12245 IR004   6.4
 5 12247 IR004   6.4
@I  EFIR  IDEP  ITHR  IEPT  IOFF  IAME  IAMT
 6  1.00   30.   30.  100. GS000 IR005   10.
@I IDATE  IROP IRVAL
 6 12117 IR004  12.7
 6 12119 IR004  12.7
 6 12120 IR004  10.2
 6 12121 IR004  10.2
 6 12123 IR004   9.1
 6 12125 IR004   9.1
 6 12126 IR004   9.1
 6 12131 IR004  18.5
 6 12178 IR004  12.7
 6 12179 IR004  12.7
 6 12180 IR004  12.7
 6 12181 IR004  12.7
 6 12183 IR004  12.7
 6 12185 IR004  12.7
 6 12186 IR004  12.7
 6 12189 IR004  12.7
 6 12192 IR004   6.4
 6 12193 IR004   6.4
 6 12198 IR004   3.2
 6 12199 IR004   3.2
 6 12200 IR004   3.2
 6 12201 IR004   3.2
 6 12202 IR004   3.2
 6 12203 IR004   3.2
 6 12204 IR004   3.2
 6 12205 IR004   3.2
 6 12206 IR004   3.2
 6 12207 IR004   6.4
 6 12209 IR004   6.4
 6 12211 IR004   6.4
 6 12213 IR004   6.4
 6 12215 IR004   6.4
 6 12217 IR004   6.4
@I  EFIR  IDEP  ITHR  IEPT  IOFF  IAME  IAMT
 7  1.00   30.   30.  100. GS000 IR005   10.
@I IDATE  IROP IRVAL
 7 12117 IR004  12.7
 7 12119 IR004  12.7
 7 12120 IR004  10.2
 7 12121 IR004  10.2
 7 12124 IR004   9.1
 7 12125 IR004   9.1
 7 12126 IR004   9.1
 7 12131 IR004  18.5
 7 12178 IR004  12.7
 7 12179 IR004  12.7
 7 12180 IR004  12.7
 7 12181 IR004  12.7
 7 12183 IR004  12.7
 7 12185 IR004  12.7
 7 12186 IR004  12.7
 7 12189 IR004  12.7
 7 12192 IR004   6.4
 7 12193 IR004   6.4
 7 12219 IR004   6.4
 7 12220 IR004   6.4
 7 12221 IR004   6.4
 7 12222 IR004   6.4
 7 12223 IR004   6.4
 7 12224 IR004   6.4
 7 12225 IR004   6.4
 7 12226 IR004   6.4
 7 12227 IR004   6.4
 7 12228 IR004   6.4
 7 12229 IR004   6.4
 7 12230 IR004   6.4
 7 12231 IR004   6.4
 7 12232 IR004   6.4
 7 12233 IR004   6.4
 7 12234 IR004   6.4
 7 12235 IR004   6.4
 7 12236 IR004   6.4
 7 12236 IR004   6.4
 7 12237 IR004   6.4
 7 12238 IR004   6.4
 7 12239 IR004   6.4
 7 12240 IR004   6.4
 7 12241 IR004   6.4
 7 12245 IR004   6.4
 7 12247 IR004   6.4
 7 12249 IR004   6.4
@I  EFIR  IDEP  ITHR  IEPT  IOFF  IAME  IAMT
 8  1.00   30.   30.  100. GS000 IR005   10.
@I IDATE  IROP IRVAL
 8 12117 IR004  12.7
 8 12120 IR004  12.7
 8 12122 IR004  10.2
 8 12123 IR004  10.2
 8 12124 IR004   9.1
 8 12125 IR004   9.1
 8 12126 IR004   9.1
 8 12131 IR004  18.5
 8 12178 IR004  12.7
 8 12179 IR004  12.7
 8 12180 IR004  12.7
 8 12181 IR004  12.7
 8 12183 IR004  12.7
 8 12184 IR004  12.7
 8 12186 IR004  12.7
 8 12187 IR004  12.7
 8 12190 IR004   6.4
 8 12191 IR004   6.4
 8 12217 IR004   6.4
 8 12219 IR004   6.4
 8 12221 IR004   6.4
 8 12223 IR004   6.4
 8 12225 IR004   6.4
 8 12227 IR004   6.4
 8 12229 IR004   6.4
 8 12231 IR004   6.4
 8 12233 IR004   6.4
 8 12235 IR004   6.4
 8 12238 IR004   6.4
 8 12240 IR004   6.4
 8 12243 IR004   6.4
 8 12245 IR004   6.4
 8 12247 IR004   6.4
@I  EFIR  IDEP  ITHR  IEPT  IOFF  IAME  IAMT
 9  1.00   30.   30.  100. GS000 IR005   10.
@I IDATE  IROP IRVAL
 9 12117 IR004  12.7
 9 12120 IR004  12.7
 9 12122 IR004  10.2
 9 12123 IR004  10.2
 9 12124 IR004   9.1
 9 12125 IR004   9.1
 9 12126 IR004   9.1
 9 12131 IR004  18.5
 9 12178 IR004  12.7
 9 12179 IR004  12.7
 9 12180 IR004  12.7
 9 12181 IR004  12.7
 9 12183 IR004  12.7
 9 12184 IR004  12.7
 9 12186 IR004  12.7
 9 12187 IR004  12.7
 9 12190 IR004   6.4
 9 12191 IR004   6.4
@I  EFIR  IDEP  ITHR  IEPT  IOFF  IAME  IAMT
10  1.00   30.   30.  100. GS000 IR005   10.
@I IDATE  IROP IRVAL
10 12117 IR004  12.7
10 12119 IR004  12.7
10 12120 IR004  10.2
10 12121 IR004  10.2
10 12122 IR004   9.1
10 12123 IR004   9.1
10 12124 IR004   9.1
10 12131 IR004  18.5
10 12178 IR004  12.7
10 12181 IR004  12.7
10 12183 IR004  12.7
10 12186 IR004  12.7
10 12190 IR004   6.4
10 12192 IR004   6.4
10 12193 IR004   6.4
10 12194 IR004   6.4
10 12196 IR004   6.4
10 12197 IR004   6.4
10 12198 IR004   6.4
10 12199 IR004   6.3
10 12200 IR004   6.3
10 12201 IR004   6.3
10 12202 IR004   6.3
10 12203 IR004   6.3
10 12204 IR004   6.3
10 12205 IR004   6.3
10 12206 IR004   6.4
10 12207 IR004   6.4
10 12208 IR004   6.4
10 12209 IR004   6.4
10 12210 IR004   6.4
10 12211 IR004   6.4
10 12212 IR004   6.4
10 12213 IR004   6.4
10 12214 IR004   6.4
10 12215 IR004   6.4
10 12216 IR004   6.3
10 12217 IR004   6.3
10 12218 IR004   6.3
10 12219 IR004   6.3
10 12220 IR004   6.3
10 12221 IR004   6.3
10 12222 IR004   6.3
10 12223 IR004   6.3
10 12224 IR004   6.3
10 12225 IR004   6.3
10 12226 IR004   6.3
10 12227 IR004   6.3
10 12228 IR004   6.3
10 12229 IR004   6.3
10 12230 IR004   6.3
10 12231 IR004   6.3
10 12232 IR004   6.3
10 12233 IR004   6.3
10 12234 IR004   6.3
10 12235 IR004   6.3
10 12236 IR004   6.3
10 12240 IR004   6.3
10 12241 IR004   6.3
10 12243 IR004   6.3
10 12245 IR004   6.4
10 12247 IR004   6.4
@I  EFIR  IDEP  ITHR  IEPT  IOFF  IAME  IAMT
11  1.00   30.   30.  100. GS000 IR005   10.
@I IDATE  IROP IRVAL
11 12117 IR004  12.7
11 12119 IR004  12.7
11 12120 IR004  10.2
11 12123 IR004  10.2
11 12124 IR004   9.1
11 12125 IR004   9.1
11 12126 IR004   9.1
11 12131 IR004  18.5
11 12178 IR004  12.7
11 12181 IR004  12.7
11 12183 IR004  12.7
11 12186 IR004  12.7
11 12190 IR004   6.4
11 12192 IR004   6.4
11 12193 IR004   6.4
11 12194 IR004   6.4
11 12196 IR004   6.4
11 12197 IR004   6.4
11 12198 IR004   6.4
11 12199 IR004   6.4
11 12200 IR004   6.4
11 12201 IR004   6.4
11 12202 IR004   6.5
11 12203 IR004   6.4
11 12204 IR004   6.4
11 12205 IR004   6.4
11 12206 IR004   6.4
11 12207 IR004   6.4
11 12208 IR004   6.4
11 12209 IR004   6.4
11 12210 IR004   6.4
11 12211 IR004   6.4
11 12212 IR004   6.4
11 12213 IR004   6.4
11 12214 IR004   6.4
11 12215 IR004   6.4
11 12216 IR004   6.4
11 12217 IR004   6.4
11 12219 IR004   6.4
11 12221 IR004   6.4
11 12223 IR004   6.4
11 12225 IR004   6.4
11 12227 IR004   6.4
11 12229 IR004   6.4
11 12231 IR004   6.4
11 12233 IR004   6.4
11 12235 IR004   6.4
11 12238 IR004   6.4
11 12240 IR004   6.4
11 12243 IR004   6.4
11 12245 IR004   6.4
11 12247 IR004   6.4
@I  EFIR  IDEP  ITHR  IEPT  IOFF  IAME  IAMT
12  1.00   30.   30.  100. GS000 IR005   10.
@I IDATE  IROP IRVAL
12 12117 IR004  12.7
12 12119 IR004  12.7
12 12120 IR004  10.2
12 12121 IR004  10.2
12 12122 IR004   9.1
12 12123 IR004   9.1
12 12124 IR004   9.1
12 12131 IR004  18.5
12 12178 IR004  12.7
12 12181 IR004  12.7
12 12183 IR004  12.7
12 12186 IR004  12.7
12 12190 IR004   6.4
12 12192 IR004   6.4
12 12193 IR004   6.4
12 12194 IR004   6.4
12 12196 IR004   6.4
12 12197 IR004   6.4
12 12198 IR004   6.4
12 12199 IR004   6.4
12 12200 IR004   6.4
12 12201 IR004   6.4
12 12202 IR004   6.4
12 12203 IR004   6.4
12 12204 IR004   6.4
12 12205 IR004   6.4
12 12206 IR004   6.4
12 12207 IR004   6.4
12 12208 IR004   6.4
12 12209 IR004   6.4
12 12210 IR004   6.4
12 12211 IR004   6.4
12 12212 IR004   6.4
12 12213 IR004   6.4
12 12214 IR004   6.4
12 12215 IR004   6.4
12 12216 IR004   6.4
@I  EFIR  IDEP  ITHR  IEPT  IOFF  IAME  IAMT
13  1.00   30.   30.  100. GS000 IR005   10.
@I IDATE  IROP IRVAL
13 12117 IR004  12.7
13 12119 IR004  12.7
13 12120 IR004  10.2
13 12123 IR004  10.2
13 12124 IR004   9.1
13 12125 IR004   9.1
13 12126 IR004   9.1
13 12131 IR004  18.5
13 12178 IR004  12.7
13 12181 IR004  12.7
13 12183 IR004  12.7
13 12186 IR004  12.7
13 12190 IR004   6.4
13 12192 IR004   6.4
13 12193 IR004   6.4
13 12194 IR004   6.4
13 12196 IR004   3.2
13 12197 IR004   3.2
13 12198 IR004   3.2
13 12199 IR004   3.2
13 12200 IR004   3.2
13 12201 IR004   3.2
13 12202 IR004   3.2
13 12203 IR004   3.2
13 12204 IR004   3.2
13 12205 IR004   6.4
13 12207 IR004   6.4
13 12209 IR004   6.4
13 12211 IR004   6.4
13 12213 IR004   6.4
13 12215 IR004   6.4
13 12217 IR004   6.4
13 12218 IR004   6.4
13 12219 IR004   6.4
13 12220 IR004   6.4
13 12221 IR004   6.4
13 12222 IR004   6.4
13 12223 IR004   6.4
13 12224 IR004   6.4
13 12225 IR004   6.4
13 12226 IR004   6.4
13 12227 IR004   6.4
13 12228 IR004   6.4
13 12229 IR004   6.4
13 12230 IR004   6.4
13 12231 IR004   6.4
13 12232 IR004   6.4
13 12233 IR004   6.4
13 12234 IR004   6.4
13 12235 IR004   6.4
13 12236 IR004   6.4
13 12238 IR004   6.4
13 12239 IR004   6.4
13 12240 IR004   6.4
13 12241 IR004   6.4
13 12243 IR004   6.4
13 12245 IR004   6.4
13 12247 IR004   6.4
@I  EFIR  IDEP  ITHR  IEPT  IOFF  IAME  IAMT
14  1.00   30.   30.  100. GS000 IR005   10.
@I IDATE  IROP IRVAL
14 12117 IR004  12.7
14 12119 IR004  12.7
14 12120 IR004  10.2
14 12121 IR004  10.2
14 12122 IR004   9.1
14 12123 IR004   9.1
14 12124 IR004   9.1
14 12131 IR004  18.5
14 12178 IR004  12.7
14 12181 IR004  12.7
14 12183 IR004  12.7
14 12186 IR004  12.7
14 12190 IR004   6.4
14 12192 IR004   6.4
14 12193 IR004   6.4
14 12194 IR004   6.4
14 12196 IR004   3.2
14 12197 IR004   3.2
14 12198 IR004   3.2
14 12199 IR004   3.2
14 12200 IR004   3.2
14 12201 IR004   3.2
14 12202 IR004   3.2
14 12203 IR004   3.2
14 12204 IR004   3.2
14 12205 IR004   6.4
14 12207 IR004   6.4
14 12209 IR004   6.4
14 12211 IR004   6.4
14 12213 IR004   6.4
14 12215 IR004   6.4
14 12217 IR004   6.4
14 12219 IR004   6.4
14 12221 IR004   6.4
14 12223 IR004   6.4
14 12225 IR004   6.4
14 12227 IR004   6.4
14 12229 IR004   6.4
14 12231 IR004   6.4
14 12233 IR004   6.4
14 12235 IR004   6.4
14 12238 IR004   6.4
14 12240 IR004   6.4
14 12243 IR004   6.4
14 12245 IR004   6.4
14 12247 IR004   6.4
@I  EFIR  IDEP  ITHR  IEPT  IOFF  IAME  IAMT
15  1.00   30.   30.  100. GS000 IR005   10.
@I IDATE  IROP IRVAL
15 12117 IR004  12.7
15 12119 IR004  12.7
15 12120 IR004  10.2
15 12121 IR004  10.2
15 12122 IR004   9.1
15 12123 IR004   9.1
15 12124 IR004   9.1
15 12131 IR004  18.5
15 12178 IR004  12.7
15 12181 IR004  12.7
15 12183 IR004  12.7
15 12186 IR004  12.7
15 12190 IR004   6.4
15 12192 IR004   6.4
15 12193 IR004   6.4
15 12194 IR004   6.4
15 12196 IR004   3.2
15 12197 IR004   3.2
15 12198 IR004   3.2
15 12199 IR004   3.2
15 12200 IR004   3.2
15 12201 IR004   3.2
15 12202 IR004   3.2
15 12203 IR004   3.2
15 12204 IR004   3.2
15 12205 IR004   6.4
15 12207 IR004   6.4
15 12209 IR004   6.4
15 12211 IR004   6.4
15 12213 IR004   6.4
15 12215 IR004   6.4
@I  EFIR  IDEP  ITHR  IEPT  IOFF  IAME  IAMT
16  1.00   30.   30.  100. GS000 IR005   10.
@I IDATE  IROP IRVAL
16 12117 IR004  12.7
16 12119 IR004  12.7
16 12120 IR004  10.2
16 12121 IR004  10.2
16 12122 IR004   9.1
16 12123 IR004   9.1
16 12125 IR004   9.1
16 12131 IR004  18.5
16 12178 IR004  12.7
16 12181 IR004  12.7
16 12183 IR004  12.7
16 12186 IR004  12.7
16 12190 IR004   6.4
16 12192 IR004   6.4
16 12193 IR004   6.4
16 12194 IR004   6.4
16 12217 IR004   6.4
16 12218 IR004   6.4
16 12219 IR004   6.4
16 12220 IR004   6.4
16 12221 IR004   6.4
16 12222 IR004   6.4
16 12223 IR004   6.4
16 12224 IR004   6.4
16 12225 IR004   6.4
16 12226 IR004   6.4
16 12227 IR004   6.4
16 12228 IR004   6.4
16 12229 IR004   6.4
16 12230 IR004   6.4
16 12231 IR004   6.4
16 12232 IR004   6.4
16 12233 IR004   6.4
16 12234 IR004   6.4
16 12235 IR004   6.4
16 12236 IR004   6.4
16 12238 IR004   6.4
16 12239 IR004   6.4
16 12240 IR004   6.4
16 12241 IR004   6.4
16 12243 IR004   6.4
16 12245 IR004   6.4
16 12247 IR004   6.4
@I  EFIR  IDEP  ITHR  IEPT  IOFF  IAME  IAMT
17  1.00   30.   30.  100. GS000 IR005   10.
@I IDATE  IROP IRVAL
17 12117 IR004  12.7
17 12119 IR004  12.7
17 12120 IR004  10.2
17 12121 IR004  10.2
17 12122 IR004   9.1
17 12123 IR004   9.1
17 12124 IR004   9.1
17 12131 IR004  18.5
17 12178 IR004  12.7
17 12181 IR004  12.7
17 12183 IR004  12.7
17 12186 IR004  12.7
17 12190 IR004   6.4
17 12192 IR004   6.4
17 12193 IR004   6.4
17 12194 IR004   6.4
17 12217 IR004   6.4
17 12219 IR004   6.4
17 12221 IR004   6.4
17 12223 IR004   6.4
17 12225 IR004   6.4
17 12227 IR004   6.4
17 12229 IR004   6.4
17 12231 IR004   6.4
17 12233 IR004   6.4
17 12235 IR004   6.4
17 12238 IR004   6.4
17 12240 IR004   6.4
17 12243 IR004   6.4
17 12245 IR004   6.4
17 12247 IR004   6.4
@I  EFIR  IDEP  ITHR  IEPT  IOFF  IAME  IAMT
18  1.00   30.   30.  100. GS000 IR005   10.
@I IDATE  IROP IRVAL
18 12117 IR004  12.7
18 12119 IR004  12.7
18 12120 IR004  10.2
18 12121 IR004  10.2
18 12122 IR004   9.1
18 12123 IR004   9.1
18 12124 IR004   9.1
18 12131 IR004  18.5
18 12178 IR004  12.7
18 12181 IR004  12.7
18 12183 IR004  12.7
18 12186 IR004  12.7
18 12190 IR004   6.4
18 12192 IR004   6.4
18 12193 IR004   6.4
18 12194 IR004   6.4
@I  EFIR  IDEP  ITHR  IEPT  IOFF  IAME  IAMT
19  1.00   30.   30.  100. GS000 IR005   10.
@I IDATE  IROP IRVAL
19 12117 IR004  12.7
19 12119 IR004  12.7
19 12120 IR004  10.2
19 12121 IR004  10.2
19 12122 IR004   9.1
19 12123 IR004   9.1
19 12124 IR004   9.1
19 12131 IR004  18.5
19 12196 IR004   6.4
19 12197 IR004   6.4
19 12198 IR004   6.4
19 12199 IR004   6.4
19 12200 IR004   6.4
19 12201 IR004   6.4
19 12202 IR004   6.4
19 12203 IR004   6.4
19 12204 IR004   6.4
19 12205 IR004   6.4
19 12206 IR004   6.4
19 12207 IR004   6.4
19 12208 IR004   6.4
19 12209 IR004   6.4
19 12210 IR004   6.4
19 12211 IR004   6.4
19 12212 IR004   6.4
19 12213 IR004   6.4
19 12214 IR004   6.4
19 12215 IR004   6.4
19 12216 IR004   6.4
19 12217 IR004   6.4
19 12218 IR004   6.4
19 12219 IR004   6.4
19 12220 IR004   6.4
19 12221 IR004   6.4
19 12222 IR004   6.4
19 12223 IR004   6.4
19 12224 IR004   6.4
19 12225 IR004   6.4
19 12226 IR004   6.4
19 12227 IR004   6.4
19 12228 IR004   6.4
19 12229 IR004   6.4
19 12230 IR004   6.4
19 12231 IR004   6.4
19 12232 IR004   6.4
19 12233 IR004   6.4
19 12234 IR004   6.4
19 12235 IR004   6.4
19 12236 IR004   6.4
19 12238 IR004   6.4
19 12239 IR004   6.4
19 12240 IR004   6.4
19 12241 IR004   6.4
19 12243 IR004   6.4
19 12245 IR004   6.4
19 12247 IR004   6.4
@I  EFIR  IDEP  ITHR  IEPT  IOFF  IAME  IAMT
20  1.00   30.   30.  100. GS000 IR005   10.
@I IDATE  IROP IRVAL
20 12117 IR004  12.7
20 12119 IR004  12.7
20 12120 IR004  10.2
20 12121 IR004  10.2
20 12122 IR004   9.1
20 12123 IR004   9.1
20 12124 IR004   9.1
20 12131 IR004  18.5
20 12196 IR004   6.4
20 12197 IR004   6.4
20 12198 IR004   6.4
20 12199 IR004   6.4
20 12200 IR004   6.4
20 12201 IR004   6.4
20 12202 IR004   6.4
20 12203 IR004   6.4
20 12204 IR004   6.4
20 12205 IR004   6.4
20 12206 IR004   6.4
20 12207 IR004   6.4
20 12208 IR004   6.4
20 12209 IR004   6.4
20 12210 IR004   6.4
20 12211 IR004   6.4
20 12212 IR004   6.4
20 12213 IR004   6.4
20 12214 IR004   6.4
20 12215 IR004   6.4
20 12216 IR004   6.4
20 12217 IR004   6.4
20 12219 IR004   6.4
20 12221 IR004   6.4
20 12223 IR004   6.4
20 12225 IR004   6.4
20 12227 IR004   6.4
20 12229 IR004   6.4
20 12231 IR004   6.4
20 12233 IR004   6.4
20 12235 IR004   6.4
20 12238 IR004   6.4
20 12240 IR004   6.4
20 12243 IR004   6.4
20 12245 IR004   6.4
20 12247 IR004   6.4
@I  EFIR  IDEP  ITHR  IEPT  IOFF  IAME  IAMT
21  1.00   30.   30.  100. GS000 IR005   10.
@I IDATE  IROP IRVAL
21 12117 IR004  12.7
21 12119 IR004  12.7
21 12120 IR004  10.2
21 12121 IR004  10.2
21 12122 IR004   9.1
21 12123 IR004   9.1
21 12124 IR004   9.1
21 12131 IR004  18.5
21 12196 IR004   6.4
21 12197 IR004   6.4
21 12198 IR004   6.4
21 12199 IR004   6.4
21 12200 IR004   6.4
21 12201 IR004   6.4
21 12202 IR004   6.4
21 12203 IR004   6.4
21 12204 IR004   6.4
21 12205 IR004   6.4
21 12206 IR004   6.4
21 12207 IR004   6.4
21 12208 IR004   6.4
21 12209 IR004   6.4
21 12210 IR004   6.4
21 12211 IR004   6.4
21 12212 IR004   6.4
21 12213 IR004   6.4
21 12214 IR004   6.4
21 12215 IR004   6.4
21 12216 IR004   6.4
@I  EFIR  IDEP  ITHR  IEPT  IOFF  IAME  IAMT
22  1.00   30.   30.  100. GS000 IR005   10.
@I IDATE  IROP IRVAL
22 12117 IR004  12.7
22 12119 IR004  12.7
22 12120 IR004  10.2
22 12121 IR004  10.2
22 12122 IR004   9.1
22 12123 IR004   9.1
22 12124 IR004   9.1
22 12131 IR004  18.5
22 12196 IR004   3.2
22 12197 IR004   3.2
22 12198 IR004   3.2
22 12199 IR004   3.2
22 12200 IR004   3.2
22 12201 IR004   3.2
22 12202 IR004   3.2
22 12203 IR004   3.2
22 12204 IR004   3.2
22 12205 IR004   6.4
22 12207 IR004   6.4
22 12209 IR004   6.4
22 12211 IR004   6.4
22 12213 IR004   6.4
22 12215 IR004   6.4
22 12217 IR004   6.4
22 12218 IR004   6.4
22 12219 IR004   6.4
22 12220 IR004   6.4
22 12221 IR004   6.4
22 12222 IR004   6.4
22 12223 IR004   6.4
22 12224 IR004   6.4
22 12225 IR004   6.4
22 12226 IR004   6.4
22 12227 IR004   6.4
22 12228 IR004   6.4
22 12229 IR004   6.4
22 12230 IR004   6.4
22 12231 IR004   6.4
22 12232 IR004   6.4
22 12233 IR004   6.4
22 12234 IR004   6.4
22 12235 IR004   6.4
22 12236 IR004   6.4
22 12238 IR004   6.4
22 12239 IR004   6.4
22 12240 IR004   6.4
22 12241 IR004   6.4
22 12243 IR004   6.4
22 12245 IR004   6.4
22 12247 IR004   6.4
@I  EFIR  IDEP  ITHR  IEPT  IOFF  IAME  IAMT
23  1.00   30.   30.  100. GS000 IR005   10.
@I IDATE  IROP IRVAL
23 12117 IR004  12.7
23 12119 IR004  12.7
23 12120 IR004  10.2
23 12121 IR004  10.2
23 12122 IR004   9.1
23 12123 IR004   9.1
23 12124 IR004   9.1
23 12131 IR004  18.5
23 12196 IR004   3.2
23 12197 IR004   3.2
23 12198 IR004   3.2
23 12199 IR004   3.2
23 12200 IR004   3.2
23 12201 IR004   3.2
23 12202 IR004   3.2
23 12203 IR004   3.2
23 12204 IR004   3.2
23 12205 IR004   6.4
23 12207 IR004   6.4
23 12209 IR004   6.4
23 12211 IR004   6.4
23 12213 IR004   6.4
23 12215 IR004   6.4
23 12217 IR004   6.4
23 12219 IR004   6.4
23 12221 IR004   6.4
23 12223 IR004   6.4
23 12225 IR004   6.4
23 12227 IR004   6.4
23 12229 IR004   6.4
23 12231 IR004   6.4
23 12233 IR004   6.4
23 12235 IR004   6.4
23 12238 IR004   6.4
23 12240 IR004   6.4
23 12243 IR004   6.4
23 12245 IR004   6.4
23 12247 IR004   6.4
@I  EFIR  IDEP  ITHR  IEPT  IOFF  IAME  IAMT
24  1.00   30.   30.  100. GS000 IR005   10.
@I IDATE  IROP IRVAL
24 12117 IR004  12.7
24 12119 IR004  12.7
24 12120 IR004  10.2
24 12121 IR004  10.2
24 12122 IR004   9.1
24 12123 IR004   9.1
24 12124 IR004   9.1
24 12131 IR004  18.5
24 12196 IR004   3.2
24 12197 IR004   3.2
24 12198 IR004   3.2
24 12199 IR004   3.2
24 12200 IR004   3.2
24 12201 IR004   3.2
24 12202 IR004   3.2
24 12203 IR004   3.2
24 12204 IR004   3.2
24 12205 IR004   6.4
24 12207 IR004   6.4
24 12209 IR004   6.4
24 12211 IR004   6.4
24 12213 IR004   6.4
24 12215 IR004   6.4
@I  EFIR  IDEP  ITHR  IEPT  IOFF  IAME  IAMT
25  1.00   30.   30.  100. GS000 IR005   10.
@I IDATE  IROP IRVAL
25 12117 IR004  12.7
25 12119 IR004  12.7
25 12120 IR004  10.2
25 12121 IR004  10.2
25 12122 IR004   9.1
25 12123 IR004   9.1
25 12124 IR004   9.1
25 12131 IR004  18.5
25 12217 IR004   6.4
25 12218 IR004   6.4
25 12219 IR004   6.4
25 12220 IR004   6.4
25 12221 IR004   6.4
25 12222 IR004   6.4