*EXP.DETAILS: TXHW1001CO 2010 TX, Halfway, irrigation
*General
@PEOPLE
 Ale, Srinivasulu
@ADDRESS
 Texas A&M AgriLife Research, P.O. Box 1658, Vernon, TX 76385, (Ph)(940) 552-9941 x 232, sriniale@ag.tamu.edu
@SITE
 HW-Halfway, TX  Location 34.15N;102.95W;1038m
@   PAREA  PRNO  PLEN  PLDR  PLSP  PLAY HAREA  HRNO  HLEN  HARM
    683.0    16  43.0         101       341.0     8  43.0
@NOTES
! References:
! 
! Bordovsky, J. P., J. T. Mustian, G. L. Ritchie, K. L. Lewis, J. T. Mustian, G.
! L. Ritchie, K. L. Lewis. 2015. Cotton irrigation timing with variable seasonal
! irrigation capacities in the Texas South Plains. Appl. Eng. Agric. 31(6):
! 883-897. DOI 10.13031/aea.31.10953
! 
! Adhikari, P., A. S. Ale, J. P. Bordovsky, K. R. Thorp, N. R. Modala, N. Rajan,
! E. M. Barnes. 2016. Simulating future climate change impacts on seed cotton
! yield in the Texas High Plains using the CSM-CROPGRO-Cotton model. Agric. Water
! Management 164: 317-330. http://dx.doi.org/10.1016/j.agwat.2015.10.011
! 
! Data supplied by Bordovsky; data files created by Adhikari under direction of
! Ale; files modified by Gail Wilkerson, NCSU, gail_wilkerson@ncsu.edu (21 Mar 2018)

*TREATMENTS
@N R O C TNAME.................... CU FL SA IC MP MI MF MR MC MT ME MH SM
 1 1 0 0 HHH                        1  1  1  1  1  1  1  0  0  1  0  1  1
 2 1 0 0 HHM                        1  1  1  1  1  2  1  0  0  1  0  1  1
 3 1 0 0 HHL                        1  1  1  1  1  3  1  0  0  1  0  1  1
 4 1 0 0 HMH                        1  1  1  1  1  4  1  0  0  1  0  1  1
 5 1 0 0 HMM                        1  1  1  1  1  5  1  0  0  1  0  1  1
 6 1 0 0 HML                        1  1  1  1  1  6  1  0  0  1  0  1  1
 7 1 0 0 HLH                        1  1  1  1  1  7  1  0  0  1  0  1  1
 8 1 0 0 HLM                        1  1  1  1  1  8  1  0  0  1  0  1  1
 9 1 0 0 HLL                        1  1  1  1  1  9  1  0  0  1  0  1  1
10 1 0 0 MHH                        1  1  1  1  1 10  1  0  0  1  0  1  1
11 1 0 0 MHM                        1  1  1  1  1 11  1  0  0  1  0  1  1
12 1 0 0 MHL                        1  1  1  1  1 12  1  0  0  1  0  1  1
13 1 0 0 MMH                        1  1  1  1  1 13  1  0  0  1  0  1  1
14 1 0 0 MMM                        1  1  1  1  1 14  1  0  0  1  0  1  1
15 1 0 0 MML                        1  1  1  1  1 15  1  0  0  1  0  1  1
16 1 0 0 MLH                        1  1  1  1  1 16  1  0  0  1  0  1  1
17 1 0 0 MLM                        1  1  1  1  1 17  1  0  0  1  0  1  1
18 1 0 0 MLL                        1  1  1  1  1 18  1  0  0  1  0  1  1
19 1 0 0 LHH                        1  1  1  1  1 19  1  0  0  1  0  1  1
20 1 0 0 LHM                        1  1  1  1  1 20  1  0  0  1  0  1  1
21 1 0 0 LHL                        1  1  1  1  1 21  1  0  0  1  0  1  1
22 1 0 0 LMH                        1  1  1  1  1 22  1  0  0  1  0  1  1
23 1 0 0 LMM                        1  1  1  1  1 23  1  0  0  1  0  1  1
24 1 0 0 LML                        1  1  1  1  1 24  1  0  0  1  0  1  1
25 1 0 0 LLH                        1  1  1  1  1 25  1  0  0  1  0  1  1
26 1 0 0 LLM                        1  1  1  1  1 26  1  0  0  1  0  1  1
27 1 0 0 LLL                        1  1  1  1  1 27  1  0  0  1  0  1  1

*CULTIVARS
@C CR INGENO CNAME...........
 1 CO CO0028 FiberMax 9680B2R

*FIELDS
@L ID_FIELD WSTA....  FLSA  FLOB  FLDT  FLDD  FLDS  FLST SLTX   SLDP ID_SOIL
 1 TXHW0001 TXHW1001 -99     -99 DR000   -99   -99 0     CL     210. TXHW100001
@L ...........XCRD ...........YCRD .....ELEV .............AREA .SLEN .FLWR .SLAS FLHST FHDUR
 1        34.35000      -101.95100   1038.00               -99   -99   -99   -99

*SOIL ANALYSIS
@A SADAT  SMHB  SMPX  SMKE SANAME........................................
 1 10252 SA011 -99   -99   HHH

*INITIAL CONDITIONS
@C   PCR ICDAT  ICRT  ICND  ICRN  ICRE  ICWD ICRES ICREN ICREP ICRIP ICRID
 1    CO 10001   -99   -99  0.00  0.00   -99   -99   -99   -99   -99   -99
@C  ICBL  SH2O  SNH4  SNO3
 1    5. 0.170   0.3  40.0
 1   18. 0.170   0.3  40.0
 1   30. 0.170   0.3  40.0
 1   46. 0.170   0.3  40.0
 1   60. 0.170   0.3  40.0
 1   90. 0.170   0.3  40.0
 1  120. 0.170   0.3   6.0
 1  150. 0.170   0.3   4.0
 1  180. 0.170   0.3   2.0
 1  210. 0.170   0.3   0.1

*PLANTING DETAILS
@P PDATE EDATE  PPOP  PPOE  PLME  PLDS  PLRS  PLRD  PLDP  PLWT  PAGE  PENV  PLPH  SPRL
 1 10131   -99  12.8  12.8     S     R  10.0   -99   3.8   -99   -99   -99   -99   -99

*IRRIGATION AND WATER MANAGEMENT
@I  EFIR  IDEP  ITHR  IEPT  IOFF  IAME  IAMT
 1  1.00   30.   30.  100. GS000 IR005   10.
@I IDATE  IROP IRVAL
 1 10175 IR004  12.7
 1 10176 IR004  12.7
 1 10179 IR004  12.7
 1 10181 IR004  12.7
 1 10200 IR004  12.7
 1 10202 IR004  12.7
 1 10203 IR004   2.5
 1 10207 IR004  12.7
 1 10211 IR004   2.5
 1 10214 IR004  12.7
 1 10215 IR004  12.7
 1 10217 IR004  12.7
 1 10221 IR004  12.7
 1 10223 IR004   2.5
 1 10225 IR004   2.5
 1 10227 IR004  12.7
 1 10236 IR004  12.7
 1 10237 IR004   6.4
 1 10239 IR004  12.7
 1 10242 IR004  12.7
 1 10244 IR004  12.7
 1 10250 IR004  12.7
@I  EFIR  IDEP  ITHR  IEPT  IOFF  IAME  IAMT
 2  1.00   30.   30.  100. GS000 IR005   10.
@I IDATE  IROP IRVAL
 2 10175 IR004  12.7
 2 10176 IR004  12.7
 2 10179 IR004  12.7
 2 10181 IR004  12.7
 2 10200 IR004  12.7
 2 10202 IR004  12.7
 2 10203 IR004   2.5
 2 10207 IR004  12.7
 2 10211 IR004   2.5
 2 10214 IR004  12.7
 2 10215 IR004  12.7
 2 10217 IR004  12.7
 2 10221 IR004   6.4
 2 10223 IR004   6.4
 2 10225 IR004   6.4
 2 10227 IR004   6.4
 2 10231 IR004   6.4
 2 10233 IR004   6.4
 2 10236 IR004   6.4
 2 10237 IR004   6.4
 2 10239 IR004   6.4
 2 10242 IR004   6.4
 2 10244 IR004   6.4
 2 10250 IR004   6.4
@I  EFIR  IDEP  ITHR  IEPT  IOFF  IAME  IAMT
 3  1.00   30.   30.  100. GS000 IR005   10.
@I IDATE  IROP IRVAL
 3 10175 IR004  12.7
 3 10176 IR004  12.7
 3 10179 IR004  12.7
 3 10181 IR004  12.7
 3 10200 IR004  12.7
 3 10203 IR004  12.7
 3 10204 IR004   2.5
 3 10207 IR004  12.7
 3 10211 IR004   2.5
 3 10214 IR004  12.7
 3 10215 IR004  12.7
 3 10217 IR004  12.7
@I  EFIR  IDEP  ITHR  IEPT  IOFF  IAME  IAMT
 4  1.00   30.   30.  100. GS000 IR005   10.
@I IDATE  IROP IRVAL
 4 10175 IR004  12.7
 4 10176 IR004  12.7
 4 10179 IR004  12.7
 4 10181 IR004  12.7
 4 10200 IR004   6.4
 4 10202 IR004   6.4
 4 10203 IR004   6.4
 4 10207 IR004   6.4
 4 10211 IR004  12.7
 4 10214 IR004  12.7
 4 10215 IR004   6.4
 4 10217 IR004   6.4
 4 10221 IR004  12.7
 4 10223 IR004  12.7
 4 10225 IR004  12.7
 4 10227 IR004  12.7
 4 10235 IR004  12.7
 4 10239 IR004  12.7
 4 10242 IR004  12.7
 4 10244 IR004  12.7
 4 10250 IR004  12.7
@I  EFIR  IDEP  ITHR  IEPT  IOFF  IAME  IAMT
 5  1.00   30.   30.  100. GS000 IR005   10.
@I IDATE  IROP IRVAL
 5 10175 IR004  12.7
 5 10176 IR004  12.7
 5 10179 IR004  12.7
 5 10181 IR004  12.7
 5 10200 IR004   6.4
 5 10202 IR004   6.4
 5 10203 IR004   6.4
 5 10207 IR004   6.4
 5 10211 IR004  12.7
 5 10214 IR004  12.7
 5 10215 IR004   6.4
 5 10217 IR004   6.4
 5 10221 IR004   6.4
 5 10223 IR004   6.4
 5 10225 IR004   6.4
 5 10227 IR004   6.4
 5 10230 IR004   6.4
 5 10232 IR004   6.4
 5 10235 IR004   6.4
 5 10237 IR004   6.4
 5 10239 IR004   6.4
 5 10242 IR004   6.4
 5 10244 IR004   6.4
 5 10251 IR004   6.4
@I  EFIR  IDEP  ITHR  IEPT  IOFF  IAME  IAMT
 6  1.00   30.   30.  100. GS000 IR005   10.
@I IDATE  IROP IRVAL
 6 10175 IR004  12.7
 6 10176 IR004  12.7
 6 10179 IR004  12.7
 6 10181 IR004  12.7
 6 10200 IR004   6.4
 6 10202 IR004   6.4
 6 10203 IR004   6.4
 6 10207 IR004   6.4
 6 10211 IR004  12.7
 6 10214 IR004  12.7
 6 10215 IR004   6.4
 6 10217 IR004   6.4
@I  EFIR  IDEP  ITHR  IEPT  IOFF  IAME  IAMT
 7  1.00   30.   30.  100. GS000 IR005   10.
@I IDATE  IROP IRVAL
 7 10175 IR004  12.7
 7 10176 IR004  12.7
 7 10179 IR004  12.7
 7 10181 IR004  12.7
 7 10221 IR004  12.7
 7 10223 IR004  12.7
 7 10225 IR004  12.7
 7 10227 IR004  12.7
 7 10230 IR004  12.7
 7 10232 IR004  12.7
 7 10235 IR004  12.7
 7 10237 IR004   6.4
 7 10239 IR004  12.7
 7 10242 IR004  12.7
 7 10244 IR004  12.7
 7 10250 IR004  12.7
@I  EFIR  IDEP  ITHR  IEPT  IOFF  IAME  IAMT
 8  1.00   30.   30.  100. GS000 IR005   10.
@I IDATE  IROP IRVAL
 8 10175 IR004  12.7
 8 10176 IR004  12.7
 8 10179 IR004  12.7
 8 10181 IR004  12.7
 8 10221 IR004   6.4
 8 10223 IR004   6.4
 8 10225 IR004   6.4
 8 10227 IR004   6.4
 8 10230 IR004   6.4
 8 10232 IR004   6.4
 8 10235 IR004   6.4
 8 10237 IR004   6.4
 8 10239 IR004   6.4
 8 10242 IR004   6.4
 8 10244 IR004   6.4
 8 10250 IR004   6.4
@I  EFIR  IDEP  ITHR  IEPT  IOFF  IAME  IAMT
 9  1.00   30.   30.  100. GS000 IR005   10.
@I IDATE  IROP IRVAL
 9 10175 IR004  12.7
 9 10176 IR004  12.7
 9 10179 IR004  12.7
 9 10181 IR004  12.7
@I  EFIR  IDEP  ITHR  IEPT  IOFF  IAME  IAMT
10  1.00   30.   30.  100. GS000 IR005   10.
@I IDATE  IROP IRVAL
10 10175 IR004   6.4
10 10176 IR004   6.4
10 10179 IR004   6.4
10 10181 IR004  12.7
10 10200 IR004  12.7
10 10201 IR004  12.7
10 10203 IR004   2.5
10 10207 IR004  12.7
10 10211 IR004   2.5
10 10214 IR004  12.7
10 10215 IR004  12.7
10 10217 IR004  12.7
10 10221 IR004  12.7
10 10223 IR004   2.5
10 10225 IR004   2.5
10 10227 IR004  12.7
10 10235 IR004  12.7
10 10237 IR004   6.4
10 10239 IR004  12.7
10 10242 IR004  12.7
10 10244 IR004  12.7
10 10250 IR004  12.7
@I  EFIR  IDEP  ITHR  IEPT  IOFF  IAME  IAMT
11  1.00   30.   30.  100. GS000 IR005   10.
@I IDATE  IROP IRVAL
11 10175 IR004   6.4
11 10176 IR004   6.4
11 10179 IR004   6.4
11 10181 IR004  12.7
11 10200 IR004  12.7
11 10202 IR004  12.7
11 10203 IR004   2.5
11 10207 IR004  12.7
11 10211 IR004   2.5
11 10214 IR004  12.7
11 10215 IR004  12.7
11 10217 IR004  12.7
11 10221 IR004   6.4
11 10223 IR004   6.4
11 10225 IR004   6.4
11 10227 IR004   6.4
11 10230 IR004   6.4
11 10232 IR004   6.4
11 10235 IR004   6.4
11 10237 IR004   6.4
11 10239 IR004   6.4
11 10242 IR004   6.4
11 10244 IR004   6.4
11 10250 IR004   6.4
@I  EFIR  IDEP  ITHR  IEPT  IOFF  IAME  IAMT
12  1.00   30.   30.  100. GS000 IR005   10.
@I IDATE  IROP IRVAL
12 10175 IR004   6.4
12 10176 IR004   6.4
12 10179 IR004   6.4
12 10181 IR004  12.7
12 10200 IR004  12.7
12 10201 IR004  12.7
12 10203 IR004   2.5
12 10207 IR004  12.7
12 10211 IR004   2.5
12 10214 IR004  12.7
12 10215 IR004  12.7
12 10217 IR004  12.7
@I  EFIR  IDEP  ITHR  IEPT  IOFF  IAME  IAMT
13  1.00   30.   30.  100. GS000 IR005   10.
@I IDATE  IROP IRVAL
13 10175 IR004   6.4
13 10176 IR004   6.4
13 10179 IR004   6.4
13 10181 IR004  12.7
13 10200 IR004   6.4
13 10202 IR004   6.4
13 10203 IR004   6.4
13 10207 IR004   6.4
13 10211 IR004  12.7
13 10214 IR004  12.7
13 10215 IR004   6.4
13 10217 IR004   6.4
13 10221 IR004  12.7
13 10223 IR004  12.7
13 10225 IR004  12.7
13 10227 IR004  12.7
13 10235 IR004  12.7
13 10239 IR004  12.7
13 10242 IR004  12.7
13 10244 IR004  12.7
13 10250 IR004  12.7
@I  EFIR  IDEP  ITHR  IEPT  IOFF  IAME  IAMT
14  1.00   30.   30.  100. GS000 IR005   10.
@I IDATE  IROP IRVAL
14 10175 IR004   6.4
14 10176 IR004   6.4
14 10179 IR004   6.3
14 10181 IR004  12.7
14 10200 IR004   6.3
14 10202 IR004   6.4
14 10203 IR004   6.4
14 10207 IR004   6.3
14 10211 IR004  12.7
14 10214 IR004  12.7
14 10215 IR004   6.3
14 10217 IR004   6.3
14 10221 IR004   6.3
14 10223 IR004   6.3
14 10225 IR004   6.3
14 10227 IR004   6.3
14 10230 IR004   6.4
14 10232 IR004   6.4
14 10235 IR004   6.4
14 10237 IR004   6.4
14 10239 IR004   6.4
14 10242 IR004   6.4
14 10244 IR004   6.4
14 10250 IR004   6.4
@I  EFIR  IDEP  ITHR  IEPT  IOFF  IAME  IAMT
15  1.00   30.   30.  100. GS000 IR005   10.
@I IDATE  IROP IRVAL
15 10175 IR004   6.3
15 10176 IR004   6.3
15 10179 IR004   6.3
15 10181 IR004  12.7
15 10200 IR004   6.3
15 10202 IR004   6.3
15 10203 IR004   6.3
15 10207 IR004   6.3
15 10211 IR004  12.7
15 10214 IR004  12.7
15 10215 IR004   6.4
15 10217 IR004   6.4
@I  EFIR  IDEP  ITHR  IEPT  IOFF  IAME  IAMT
16  1.00   30.   30.  100. GS000 IR005   10.
@I IDATE  IROP IRVAL
16 10175 IR004   6.4
16 10176 IR004   6.4
16 10179 IR004   6.4
16 10181 IR004  12.7
16 10221 IR004  12.7
16 10223 IR004  12.7
16 10225 IR004  12.7
16 10227 IR004  12.7
16 10230 IR004  12.7
16 10232 IR004  12.7
16 10235 IR004  12.7
16 10237 IR004   6.4
16 10239 IR004  12.7
16 10242 IR004  12.7
16 10244 IR004  12.7
16 10250 IR004  12.7
@I  EFIR  IDEP  ITHR  IEPT  IOFF  IAME  IAMT
17  1.00   30.   30.  100. GS000 IR005   10.
@I IDATE  IROP IRVAL
17 10175 IR004   6.4
17 10176 IR004   6.4
17 10179 IR004   6.4
17 10181 IR004  12.7
17 10221 IR004   6.4
17 10223 IR004   6.4
17 10225 IR004   6.3
17 10227 IR004   6.3
17 10230 IR004   6.3
17 10232 IR004   6.4
17 10235 IR004   6.3
17 10237 IR004   6.4
17 10239 IR004   6.3
17 10242 IR004   6.3
17 10244 IR004   6.3
17 10250 IR004   6.4
@I  EFIR  IDEP  ITHR  IEPT  IOFF  IAME  IAMT
18  1.00   30.   30.  100. GS000 IR005   10.
@I IDATE  IROP IRVAL
18 10175 IR004   6.4
18 10176 IR004   6.4
18 10179 IR004   6.4
18 10181 IR004  12.7
@I  EFIR  IDEP  ITHR  IEPT  IOFF  IAME  IAMT
19  1.00   30.   30.  100. GS000 IR005   10.
@I IDATE  IROP IRVAL
19 10200 IR004  12.7
19 10202 IR004  12.7
19 10203 IR004  12.7
19 10207 IR004  12.7
19 10211 IR004  12.7
19 10214 IR004  12.7
19 10216 IR004  12.7
19 10217 IR004  12.7
19 10221 IR004  12.7
19 10223 IR004   2.5
19 10225 IR004   2.5
19 10227 IR004  12.7
19 10235 IR004  12.7
19 10237 IR004   6.4
19 10239 IR004  12.7
19 10242 IR004  12.7
19 10244 IR004  12.7
19 10250 IR004  12.7
@I  EFIR  IDEP  ITHR  IEPT  IOFF  IAME  IAMT
20  1.00   30.   30.  100. GS000 IR005   10.
@I IDATE  IROP IRVAL
20 10200 IR004  12.7
20 10202 IR004  12.7
20 10203 IR004  12.7
20 10207 IR004  12.7
20 10211 IR004  12.7
20 10214 IR004  12.7
20 10215 IR004  12.7
20 10217 IR004  12.7
20 10221 IR004   6.4
20 10223 IR004   6.4
20 10225 IR004   6.4
20 10227 IR004   6.4
20 10230 IR004   6.4
20 10232 IR004   6.4
20 10235 IR004   6.4
20 10237 IR004   6.4
20 10239 IR004   6.4
20 10242 IR004   6.4
20 10244 IR004   6.4
20 10250 IR004   6.4
@I  EFIR  IDEP  ITHR  IEPT  IOFF  IAME  IAMT
21  1.00   30.   30.  100. GS000 IR005   10.
@I IDATE  IROP IRVAL
21 10200 IR004  12.7
21 10202 IR004  12.7
21 10203 IR004  12.7
21 10207 IR004  12.7
21 10211 IR004  12.7
21 10214 IR004  12.7
21 10215 IR004  12.7
21 10217 IR004  12.7
@I  EFIR  IDEP  ITHR  IEPT  IOFF  IAME  IAMT
22  1.00   30.   30.  100. GS000 IR005   10.
@I IDATE  IROP IRVAL
22 10200 IR004   6.4
22 10202 IR004   6.4
22 10203 IR004   6.4
22 10207 IR004   6.4
22 10211 IR004  12.7
22 10214 IR004  12.7
22 10215 IR004   6.4
22 10217 IR004   6.4
22 10221 IR004  12.7
22 10223 IR004  12.7
22 10227 IR004  12.7
22 10228 IR004  12.7
22 10232 IR004  12.7
22 10235 IR004  12.7
22 10239 IR004  12.7
22 10242 IR004  12.7
22 10244 IR004  12.7
22 10250 IR004  12.7
@I  EFIR  IDEP  ITHR  IEPT  IOFF  IAME  IAMT
23  1.00   30.   30.  100. GS000 IR005   10.
@I IDATE  IROP IRVAL
23 10200 IR004   6.4
23 10202 IR004   6.4
23 10203 IR004   6.4
23 10207 IR004   6.4
23 10211 IR004  12.7
23 10214 IR004  12.7
23 10215 IR004   6.4
23 10217 IR004   6.4
23 10221 IR004   6.4
23 10223 IR004   6.4
23 10225 IR004   6.4
23 10227 IR004   6.4
23 10231 IR004   6.4
23 10233 IR004   6.4
23 10235 IR004   6.4
23 10237 IR004   6.4
23 10239 IR004   6.4
23 10242 IR004   6.4
23 10244 IR004   6.4
23 10250 IR004   6.4
@I  EFIR  IDEP  ITHR  IEPT  IOFF  IAME  IAMT
24  1.00   30.   30.  100. GS000 IR005   10.
@I IDATE  IROP IRVAL
24 10200 IR004   6.4
24 10202 IR004   6.4
24 10203 IR004   6.4
24 10207 IR004   6.4
24 10211 IR004  12.5
24 10214 IR004  12.7
24 10215 IR004   6.4
24 10217 IR004   6.4
@I  EFIR  IDEP  ITHR  IEPT  IOFF  IAME  IAMT
25  1.00   30.   30.  100. GS000 IR005   10.
@I IDATE  IROP IRVAL
25 10221 IR004  12.7
25 10223 IR004  12.7
25 10225 IR004  12.7
25 10227 IR004  12.7
25 10230 IR004  12.7
25 10232 IR004  12.7
25 10235 IR004  12.7
25 10237 IR004   6.4
25 10239 IR004  12.7
25 10242 IR004  12.7
25 10244 IR004  12.7
25 10250 IR004  12.7
@I  EFIR  IDEP  ITHR  IEPT  IOFF  IAME  IAMT
26  1.00   30.   30.  100. GS000 IR005   10.
@I IDATE  IROP IRVAL
26 10221 IR004   6.4
26 10223 IR004   6.4
26 10225 IR004   6.4
26 10227 IR004   6.4
26 10230 IR004   6.4
26 10232 IR004   6.4
26 10235 IR004   6.4
26 10237 IR004   6.4
26 10239 IR004   6.4
26 10242 IR004   6.4
26 10244 IR004   6.4
26 10250 IR004   6.4
@I  EFIR  IDEP  ITHR  IEPT  IOFF  IAME  IAMT
27  1.00   30.   30.  100. GS000 IR005   10.
@I IDATE  IROP IRVAL
27 10176 IR004   0.0
27 10177 IR004   0.0
27 10180 IR004   0.0
27 10182 IR004   0.0
27 10201 IR004   0.0
27 10203 IR004   0.0
27 10204 IR004   0.0
27 10208 IR004   0.0
27 10212 IR004   0.0
27 10215 IR004   0.0
27 10216 IR004   0.0
27 10218 IR004   0.0
27 10222 IR004   0.0
27 10224 IR004   0.0
27 10226 IR004   0.0
27 10228 IR004   0.0
27 10236 IR004   0.0
27 10238 IR004   0.0
27 10240 IR004   0.0
27 10243 IR004   0.0
27 10245 IR004   0.0

*FERTILIZERS (INORGANIC)
@F FDATE  FMCD  FACD  FDEP  FAMN  FAMP  FAMK  FAMC  FAMO  FOCD
 1 10146 FE005 AP003    10     7    11   -99   -99   -99   -99
 1 10161 FE005 AP003    10    40     0   -99   -99   -99   -99

*TILLAGE
@L TDATE TIMPL  TDEP
 1 10091 TI011    5.
 1 10131 TI017    5.
 1 10139 -99      3.
 1 10141 -99      3.

*HARVEST DETAILS
@H HDATE HSTG. HCOM. HSIZ.   HPC  HBPC
 1 10305 GS009 H     A      100.   -99

*SIMULATION CONTROLS
@N GENERAL     NYERS NREPS START SDATE RSEED SNAME.................... SMODEL...
 1                 1     1     S 10001  2150 Simulation Options
@N OPTIONS     WATER NITRO SYMBI PHOSP POTAS DISES  CHEM  TILL   CO2
 1                 Y     Y     N     N     N     N     N     N     W
@N METHODS     WTHER INCON LIGHT EVAPO INFIL PHOTO HYDRO NSWIT MESOM MESEV MESOL
 1                 M     M     E     G     S     L     R     1     G     S     3
@N MANAGEMENT  PLANT IRRIG FERTI RESID HARVS
 1                 R     R     R     N     R
@N OUTPUTS     FNAME OVVEW SUMRY FROPT GROUT CAOUT WAOUT NIOUT MIOUT DIOUT VBOSE CHOUT OPOUT
 1                 N     Y     Y     1     Y     Y     Y     Y     N     N     Y     N     Y
@N PLANTING    PFRST PLAST PH2OL PH2OU PH2OD PSTMX PSTMN
 1             10131 10131   40.  100.   30.   40.    5.
@N IRRIGATION  IMDEP ITHRL ITHRU IROFF IMETH IRAMT IREFF
 1               30.   30.   85. GS000 IR004  10.0 1.000
@N NITROGEN    NMDEP NMTHR NAMNT NCODE NAOFF
 1               30.   50.   25. FE001 GS000
@N RESIDUES    RIPCN RTIME RIDEP
 1              100.     1   20.
@N HARVEST     HFRST HLAST HPCNP HPCNR
 1                 0 10305  100.    0.
