*EXP.DETAILS: TXHW1301CO 2013 TX, Halfway, irrigation
*General
@PEOPLE
 Ale, Srinivasulu
@ADDRESS
 Texas A&M AgriLife Research, P.O. Box 1658 | Vernon, TX 76385 (Ph)(940) 552-9941 x 232 sriniale@ag.tamu.edu
@SITE
 HW-Halfway, TX  Location 34.15N;102.95W;1038m
@   PAREA  PRNO  PLEN  PLDR  PLSP  PLAY HAREA  HRNO  HLEN  HARM
    683.0    16  43.0         101       341.0     8  43.0
@NOTES
! References:
! 
! Bordovsky, J. P., J. T. Mustian, G. L. Ritchie, K. L. Lewis, J. T. Mustian, G.
! L. Ritchie, K. L. Lewis. 2015. Cotton irrigation timing with variable seasonal
! irrigation capacities in the Texas South Plains. Appl. Eng. Agric. 31(6):
! 883-897. DOI 10.13031/aea.31.10953
! 
! Adhikari, P., A. S. Ale, J. P. Bordovsky, K. R. Thorp, N. R. Modala, N. Rajan,
! E. M. Barnes. 2016. Simulating future climate change impacts on seed cotton
! yield in the Texas High Plains using the CSM-CROPGRO-Cotton model. Agric. Water
! Management 164: 317-330. http://dx.doi.org/10.1016/j.agwat.2015.10.011
! 
! Data supplied by Bordovsky; data files created by Adhikari under direction of
! Ale; files modified by Gail Wilkerson, NCSU, gail_wilkerson@ncsu.edu (21 Mar 2018)
!
! Note that rooting depth is limited by soil water falling below the wilting
! point in lower layers. It took a while to figure out why rooting depth was not
! determined by SRGF in soil file. This is related to choosing option S for
! MESEV--this routine allows bare soil ET to pull water all the way from the
! bottom of the profile, even below the wilting point. I'm not convinced that
! soil water should ever drop below wilting point in these lower layers. In the
! model, soil evaporation moves water up from all layers, even 210 cm down, prior
! to planting, when simulation starts on Jan. 1. Seems like there should be a
! limit on this to just the top 20-30 cm max. I decided to leave initial soil
! water low enough for this to happen primarily because having these different
! rooting depths for different years gave such good fit to the data, and there
! was very little rainfall to fill up the lower layers of the soil profile during
! the winter each year. So maybe soil water didn't get below the wilting point,
! but maybe it got down to the wilting point at the end of one growing season,
! with insufficient water in the winter, or irrigation, to fill these lower
! layers back up. Interesting question for future research, if no information in
! literature that I've missed. Gail Wilkerson (4/5/2018)

*TREATMENTS
@N R O C TNAME.................... CU FL SA IC MP MI MF MR MC MT ME MH SM
 1 1 0 0 HHH                        1  1  1  1  1  1  1  0  0  1  0  1  1
 2 1 0 0 HHM                        1  1  1  1  1  2  1  0  0  1  0  1  1
 3 1 0 0 HHL                        1  1  1  1  1  3  1  0  0  1  0  1  1
 4 1 0 0 HMH                        1  1  1  1  1  4  1  0  0  1  0  1  1
 5 1 0 0 HMM                        1  1  1  1  1  5  1  0  0  1  0  1  1
 6 1 0 0 HML                        1  1  1  1  1  6  1  0  0  1  0  1  1
 7 1 0 0 HLH                        1  1  1  1  1  7  1  0  0  1  0  1  1
 8 1 0 0 HLM                        1  1  1  1  1  8  1  0  0  1  0  1  1
 9 1 0 0 HLL                        1  1  1  1  1  9  1  0  0  1  0  1  1
10 1 0 0 MHH                        1  1  1  1  1 10  1  0  0  1  0  1  1
11 1 0 0 MHM                        1  1  1  1  1 11  1  0  0  1  0  1  1
12 1 0 0 MHL                        1  1  1  1  1 12  1  0  0  1  0  1  1
13 1 0 0 MMH                        1  1  1  1  1 13  1  0  0  1  0  1  1
14 1 0 0 MMM                        1  1  1  1  1 14  1  0  0  1  0  1  1
15 1 0 0 MML                        1  1  1  1  1 15  1  0  0  1  0  1  1
16 1 0 0 MLH                        1  1  1  1  1 16  1  0  0  1  0  1  1
17 1 0 0 MLM                        1  1  1  1  1 17  1  0  0  1  0  1  1
18 1 0 0 MLL                        1  1  1  1  1 18  1  0  0  1  0  1  1
19 1 0 0 LHH                        1  1  1  1  1 19  1  0  0  1  0  1  1
20 1 0 0 LHM                        1  1  1  1  1 20  1  0  0  1  0  1  1
21 1 0 0 LHL                        1  1  1  1  1 21  1  0  0  1  0  1  1
22 1 0 0 LMH                        1  1  1  1  1 22  1  0  0  1  0  1  1
23 1 0 0 LMM                        1  1  1  1  1 23  1  0  0  1  0  1  1
24 1 0 0 LML                        1  1  1  1  1 24  1  0  0  1  0  1  1
25 1 0 0 LLH                        1  1  1  1  1 25  1  0  0  1  0  1  1
26 1 0 0 LLM                        1  1  1  1  1 26  1  0  0  1  0  1  1
27 1 0 0 LLL                        1  1  1  1  1 27  1  0  0  1  0  1  1

*CULTIVARS
@C CR INGENO CNAME...........
 1 CO CO0028 FiberMax 9680B2R

*FIELDS
@L ID_FIELD WSTA....  FLSA  FLOB  FLDT  FLDD  FLDS  FLST SLTX   SLDP ID_SOIL
 1 TXHW0001 TXHW1301 -99     -99 DR000   -99   -99 0     CL     210. TXHW100001
@L ...........XCRD ...........YCRD .....ELEV .............AREA .SLEN .FLWR .SLAS FLHST FHDUR
 1        34.35000      -101.95100   1038.00               -99   -99   -99   -99

*SOIL ANALYSIS
@A SADAT  SMHB  SMPX  SMKE SANAME........................................
 1 13252 SA011 -99   -99   HHH

*INITIAL CONDITIONS
@C   PCR ICDAT  ICRT  ICND  ICRN  ICRE  ICWD ICRES ICREN ICREP ICRIP ICRID
 1    CO 13001   -99   -99  0.00  0.00   -99   -99   -99   -99   -99   -99
@C  ICBL  SH2O  SNH4  SNO3
 1    5. 0.196   0.3  40.0
 1   15. 0.196   0.3  40.0
 1   30. 0.234   0.3  40.0
 1   45. 0.254   0.3  40.0
 1   60. 0.269   0.3  40.0
 1   90. 0.262   0.3  40.0
 1  120. 0.262   0.3   6.0
 1  150. 0.180   0.3   4.0
 1  180. 0.180   0.3   2.0
 1  210. 0.180   0.3   0.1

*PLANTING DETAILS
@P PDATE EDATE  PPOP  PPOE  PLME  PLDS  PLRS  PLRD  PLDP  PLWT  PAGE  PENV  PLPH  SPRL
 1 13133   -99  13.8  13.8     S     R 100.0   -99   3.8   -99   -99   -99   -99   -99

*IRRIGATION AND WATER MANAGEMENT
@I  EFIR  IDEP  ITHR  IEPT  IOFF  IAME  IAMT
 1  1.00   30.   30.  100. GS000 IR005   10.
@I IDATE  IROP IRVAL
 1 13113 IR004   6.4
 1 13114 IR004   9.8
 1 13115 IR004  10.7
 1 13116 IR004  10.7
 1 13117 IR004   7.1
 1 13118 IR004  10.7
 1 13119 IR004   7.1
 1 13120 IR004  10.7
 1 13121 IR004   3.6
 1 13134 IR004   8.9
 1 13136 IR004   7.1
 1 13137 IR004   7.1
 1 13163 IR004   8.5
 1 13165 IR004   8.5
 1 13166 IR004   8.5
 1 13168 IR004   8.5
 1 13177 IR004   8.5
 1 13178 IR004   8.5
 1 13179 IR004   8.5
 1 13180 IR004   8.5
 1 13183 IR004   8.5
 1 13184 IR004   8.5
 1 13186 IR004   8.5
 1 13187 IR004   8.5
 1 13189 IR004   8.5
 1 13190 IR004   8.5
 1 13191 IR004   8.5
 1 13192 IR004   8.5
 1 13194 IR004   8.5
 1 13195 IR004   8.5
 1 13201 IR004   8.4
 1 13202 IR004   8.4
 1 13203 IR004   8.4
 1 13204 IR004   8.4
 1 13205 IR004   8.4
 1 13206 IR004   8.4
 1 13207 IR004   8.4
 1 13209 IR004   8.4
 1 13212 IR004   8.4
 1 13214 IR004   8.4
 1 13217 IR004   8.4
 1 13218 IR004   8.4
 1 13219 IR004   8.5
 1 13220 IR004   8.5
 1 13221 IR004   8.5
 1 13223 IR004   8.5
 1 13224 IR004   8.5
 1 13225 IR004   8.5
 1 13233 IR004   8.5
 1 13234 IR004   8.5
 1 13235 IR004   8.5
 1 13237 IR004   8.5
 1 13240 IR004   8.5
 1 13242 IR004   8.5
 1 13243 IR004   4.2
 1 13246 IR004   4.2
 1 13248 IR004   8.5
 1 13250 IR004   8.5
 1 13256 IR004   8.5
@I  EFIR  IDEP  ITHR  IEPT  IOFF  IAME  IAMT
 2  1.00   30.   30.  100. GS000 IR005   10.
@I IDATE  IROP IRVAL
 2 13113 IR004   6.4
 2 13114 IR004   9.8
 2 13115 IR004  10.7
 2 13116 IR004  10.7
 2 13117 IR004   7.1
 2 13118 IR004  10.7
 2 13119 IR004   7.1
 2 13120 IR004  10.7
 2 13121 IR004   3.6
 2 13134 IR004   8.9
 2 13136 IR004   7.1
 2 13137 IR004   7.1
 2 13163 IR004   8.5
 2 13165 IR004   8.5
 2 13166 IR004   8.5
 2 13168 IR004   8.5
 2 13177 IR004   8.5
 2 13178 IR004   8.5
 2 13179 IR004   8.5
 2 13180 IR004   8.5
 2 13183 IR004   8.5
 2 13184 IR004   8.5
 2 13186 IR004   8.5
 2 13187 IR004   8.5
 2 13189 IR004   8.5
 2 13190 IR004   8.5
 2 13191 IR004   8.5
 2 13192 IR004   8.5
 2 13194 IR004   8.5
 2 13195 IR004   8.5
 2 13201 IR004   8.4
 2 13202 IR004   8.4
 2 13203 IR004   8.4
 2 13204 IR004   8.4
 2 13205 IR004   8.4
 2 13206 IR004   8.4
 2 13207 IR004   8.4
 2 13209 IR004   8.4
 2 13212 IR004   8.4
 2 13214 IR004   8.4
 2 13217 IR004   8.4
 2 13218 IR004   8.4
 2 13219 IR004   8.5
 2 13221 IR004   8.5
 2 13224 IR004   8.5
 2 13229 IR004   8.5
 2 13231 IR004   8.5
 2 13233 IR004   8.5
 2 13235 IR004   8.5
 2 13238 IR004   4.2
 2 13239 IR004   4.2
 2 13240 IR004   4.2
 2 13242 IR004   4.2
 2 13245 IR004   4.2
 2 13246 IR004   4.2
 2 13248 IR004   8.5
 2 13250 IR004   8.5
 2 13256 IR004   8.5
@I  EFIR  IDEP  ITHR  IEPT  IOFF  IAME  IAMT
 3  1.00   30.   30.  100. GS000 IR005   10.
@I IDATE  IROP IRVAL
 3 13113 IR004   6.4
 3 13114 IR004   9.8
 3 13115 IR004  10.7
 3 13116 IR004  10.7
 3 13117 IR004   7.1
 3 13118 IR004  10.7
 3 13119 IR004   7.1
 3 13120 IR004  10.7
 3 13121 IR004   3.6
 3 13134 IR004   8.9
 3 13136 IR004   7.1
 3 13137 IR004   7.1
 3 13163 IR004   8.5
 3 13165 IR004   8.5
 3 13166 IR004   8.5
 3 13168 IR004   8.5
 3 13176 IR004   8.5
 3 13177 IR004   8.5
 3 13179 IR004   8.5
 3 13180 IR004   8.5
 3 13183 IR004   8.5
 3 13184 IR004   8.5
 3 13186 IR004   8.5
 3 13187 IR004   8.5
 3 13189 IR004   8.5
 3 13190 IR004   8.5
 3 13191 IR004   8.5
 3 13192 IR004   8.5
 3 13194 IR004   8.5
 3 13195 IR004   8.5
 3 13201 IR004   8.4
 3 13202 IR004   8.4
 3 13203 IR004   8.4
 3 13204 IR004   8.4
 3 13205 IR004   8.4
 3 13206 IR004   8.4
 3 13207 IR004   8.4
 3 13209 IR004   8.4
 3 13212 IR004   8.4
 3 13214 IR004   8.4
 3 13217 IR004   8.4
 3 13218 IR004   8.4
@I  EFIR  IDEP  ITHR  IEPT  IOFF  IAME  IAMT
 4  1.00   30.   30.  100. GS000 IR005   10.
@I IDATE  IROP IRVAL
 4 13113 IR004   6.4
 4 13114 IR004   9.8
 4 13115 IR004  10.7
 4 13116 IR004  10.7
 4 13117 IR004   7.1
 4 13118 IR004  10.7
 4 13119 IR004   7.1
 4 13120 IR004  10.7
 4 13121 IR004   3.6
 4 13134 IR004   8.9
 4 13136 IR004   7.1
 4 13137 IR004   7.1
 4 13163 IR004   8.5
 4 13165 IR004   8.5
 4 13166 IR004   8.5
 4 13168 IR004   8.5
 4 13177 IR004   8.5
 4 13178 IR004   8.5
 4 13179 IR004   8.5
 4 13180 IR004   8.5
 4 13183 IR004   8.5
 4 13184 IR004   8.5
 4 13186 IR004   8.5
 4 13187 IR004   8.5
 4 13189 IR004   8.5
 4 13190 IR004   8.5
 4 13191 IR004   8.5
 4 13192 IR004   8.5
 4 13194 IR004   8.5
 4 13195 IR004   8.5
 4 13201 IR004   8.4
 4 13203 IR004   8.4
 4 13205 IR004   8.4
 4 13207 IR004   8.4
 4 13210 IR004   8.4
 4 13212 IR004   8.4
 4 13214 IR004   8.4
 4 13217 IR004   8.4
 4 13219 IR004   8.5
 4 13220 IR004   8.5
 4 13221 IR004   8.5
 4 13223 IR004   8.5
 4 13224 IR004   8.5
 4 13225 IR004   8.5
 4 13229 IR004   8.5
 4 13230 IR004   8.5
 4 13231 IR004   8.5
 4 13232 IR004   8.5
 4 13233 IR004   8.5
 4 13234 IR004   8.5
 4 13235 IR004   8.5
 4 13237 IR004   8.5
 4 13238 IR004   8.5
 4 13240 IR004   4.2
 4 13242 IR004   4.2
 4 13245 IR004   4.2
 4 13246 IR004   4.2
 4 13248 IR004   8.5
 4 13250 IR004   8.5
 4 13256 IR004   8.5
@I  EFIR  IDEP  ITHR  IEPT  IOFF  IAME  IAMT
 5  1.00   30.   30.  100. GS000 IR005   10.
@I IDATE  IROP IRVAL
 5 13113 IR004   6.4
 5 13114 IR004   9.8
 5 13115 IR004  10.7
 5 13116 IR004  10.7
 5 13117 IR004   7.1
 5 13118 IR004  10.7
 5 13119 IR004   7.1
 5 13120 IR004  10.7
 5 13121 IR004   3.6
 5 13134 IR004   8.9
 5 13136 IR004   7.1
 5 13137 IR004   7.1
 5 13163 IR004   8.5
 5 13165 IR004   8.5
 5 13166 IR004   8.5
 5 13168 IR004   8.5
 5 13177 IR004   8.5
 5 13178 IR004   8.5
 5 13179 IR004   8.5
 5 13180 IR004   8.5
 5 13183 IR004   8.5
 5 13184 IR004   8.5
 5 13186 IR004   8.5
 5 13187 IR004   8.5
 5 13189 IR004   8.5
 5 13190 IR004   8.5
 5 13191 IR004   8.5
 5 13192 IR004   8.5
 5 13194 IR004   8.5
 5 13195 IR004   8.5
 5 13201 IR004   8.4
 5 13203 IR004   8.4
 5 13205 IR004   8.4
 5 13207 IR004   8.4
 5 13210 IR004   8.4
 5 13212 IR004   8.4
 5 13214 IR004   8.4
 5 13217 IR004   8.4
 5 13219 IR004   8.5
 5 13221 IR004   8.5
 5 13224 IR004   8.5
 5 13229 IR004   8.5
 5 13231 IR004   8.5
 5 13233 IR004   8.5
 5 13235 IR004   8.5
 5 13238 IR004   4.2
 5 13239 IR004   4.2
 5 13240 IR004   8.5
 5 13242 IR004   8.5
 5 13245 IR004   8.5
 5 13246 IR004   8.5
 5 13248 IR004   8.5
 5 13250 IR004   8.5
 5 13256 IR004   8.5
@I  EFIR  IDEP  ITHR  IEPT  IOFF  IAME  IAMT
 6  1.00   30.   30.  100. GS000 IR005   10.
@I IDATE  IROP IRVAL
 6 13113 IR004   6.4
 6 13114 IR004   9.8
 6 13115 IR004  10.7
 6 13116 IR004  10.7
 6 13117 IR004   7.1
 6 13118 IR004  10.7
 6 13119 IR004   7.1
 6 13120 IR004  10.7
 6 13121 IR004   3.6
 6 13134 IR004   8.9
 6 13136 IR004   7.1
 6 13137 IR004   7.1
 6 13163 IR004   8.5
 6 13165 IR004   8.5
 6 13166 IR004   8.5
 6 13168 IR004   8.5
 6 13177 IR004   8.5
 6 13178 IR004   8.5
 6 13179 IR004   8.5
 6 13180 IR004   8.5
 6 13183 IR004   8.5
 6 13184 IR004   8.5
 6 13186 IR004   8.5
 6 13187 IR004   8.5
 6 13189 IR004   8.5
 6 13190 IR004   8.5
 6 13191 IR004   8.5
 6 13192 IR004   8.5
 6 13194 IR004   8.5
 6 13195 IR004   8.5
 6 13201 IR004   8.4
 6 13203 IR004   8.4
 6 13205 IR004   8.4
 6 13207 IR004   8.4
 6 13210 IR004   8.4
 6 13212 IR004   8.4
 6 13214 IR004   8.4
 6 13217 IR004   8.4
@I  EFIR  IDEP  ITHR  IEPT  IOFF  IAME  IAMT
 7  1.00   30.   30.  100. GS000 IR005   10.
@I IDATE  IROP IRVAL
 7 13113 IR004   6.4
 7 13114 IR004   9.8
 7 13115 IR004  10.7
 7 13116 IR004  10.7
 7 13117 IR004   7.1
 7 13118 IR004  10.7
 7 13119 IR004   7.1
 7 13120 IR004  10.7
 7 13121 IR004   3.6
 7 13134 IR004   8.9
 7 13136 IR004   7.1
 7 13137 IR004   7.1
 7 13163 IR004   8.5
 7 13165 IR004   8.5
 7 13166 IR004   8.5
 7 13168 IR004   8.5
 7 13177 IR004   8.5
 7 13178 IR004   8.5
 7 13179 IR004   8.5
 7 13180 IR004   8.5
 7 13183 IR004   8.5
 7 13184 IR004   8.5
 7 13186 IR004   8.5
 7 13187 IR004   8.5
 7 13189 IR004   8.5
 7 13190 IR004   8.5
 7 13191 IR004   8.5
 7 13192 IR004   8.5
 7 13194 IR004   8.5
 7 13195 IR004   8.5
 7 13219 IR004   8.5
 7 13220 IR004   8.5
 7 13221 IR004   8.5
 7 13223 IR004   8.5
 7 13224 IR004   8.5
 7 13225 IR004   8.5
 7 13229 IR004   8.5
 7 13230 IR004   8.5
 7 13231 IR004   8.5
 7 13232 IR004   8.5
 7 13233 IR004   8.5
 7 13234 IR004   8.5
 7 13235 IR004   8.5
 7 13237 IR004   8.5
 7 13238 IR004   8.5
 7 13239 IR004   8.5
 7 13240 IR004   8.5
 7 13242 IR004   8.5
 7 13245 IR004   8.5
 7 13246 IR004   8.5
 7 13248 IR004   8.5
 7 13250 IR004   8.5
 7 13256 IR004   8.5
@I  EFIR  IDEP  ITHR  IEPT  IOFF  IAME  IAMT
 8  1.00   30.   30.  100. GS000 IR005   10.
@I IDATE  IROP IRVAL
 8 13113 IR004   6.4
 8 13114 IR004   9.8
 8 13115 IR004  10.7
 8 13116 IR004  10.7
 8 13117 IR004   7.1
 8 13118 IR004  10.7
 8 13119 IR004   7.1
 8 13120 IR004  10.7
 8 13121 IR004   3.6
 8 13134 IR004   8.9
 8 13136 IR004   7.1
 8 13137 IR004   7.1
 8 13163 IR004   8.5
 8 13165 IR004   8.5
 8 13166 IR004   8.5
 8 13168 IR004   8.5
 8 13177 IR004   8.5
 8 13178 IR004   8.5
 8 13179 IR004   8.5
 8 13180 IR004   8.5
 8 13183 IR004   8.5
 8 13184 IR004   8.5
 8 13186 IR004   8.5
 8 13187 IR004   8.5
 8 13189 IR004   8.5
 8 13190 IR004   8.5
 8 13191 IR004   8.5
 8 13192 IR004   8.5
 8 13194 IR004   8.5
 8 13195 IR004   8.5
 8 13219 IR004   8.5
 8 13221 IR004   8.5
 8 13224 IR004   8.5
 8 13229 IR004   8.5
 8 13231 IR004   8.5
 8 13233 IR004   8.5
 8 13235 IR004   8.5
 8 13238 IR004   4.2
 8 13239 IR004   4.2
 8 13240 IR004   4.2
 8 13242 IR004   4.2
 8 13245 IR004   4.2
 8 13246 IR004   4.2
 8 13248 IR004   8.5
 8 13250 IR004   8.5
 8 13256 IR004   8.5
@I  EFIR  IDEP  ITHR  IEPT  IOFF  IAME  IAMT
 9  1.00   30.   30.  100. GS000 IR005   10.
@I IDATE  IROP IRVAL
 9 13113 IR004   6.4
 9 13114 IR004   9.8
 9 13115 IR004  10.7
 9 13116 IR004  10.7
 9 13117 IR004   7.1
 9 13118 IR004  10.7
 9 13119 IR004   7.1
 9 13120 IR004  10.7
 9 13121 IR004   3.6
 9 13134 IR004   8.9
 9 13136 IR004   7.1
 9 13137 IR004   7.1
 9 13163 IR004   8.5
 9 13165 IR004   8.5
 9 13166 IR004   8.5
 9 13168 IR004   8.5
 9 13177 IR004   8.5
 9 13178 IR004   8.5
 9 13179 IR004   8.5
 9 13180 IR004   8.5
 9 13183 IR004   8.5
 9 13184 IR004   8.5
 9 13186 IR004   8.5
 9 13187 IR004   8.5
 9 13189 IR004   8.5
 9 13190 IR004   8.5
 9 13191 IR004   8.5
 9 13192 IR004   8.5
 9 13194 IR004   8.5
 9 13195 IR004   8.5
@I  EFIR  IDEP  ITHR  IEPT  IOFF  IAME  IAMT
10  1.00   30.   30.  100. GS000 IR005   10.
@I IDATE  IROP IRVAL
10 13113 IR004   6.4
10 13114 IR004   9.8
10 13115 IR004  10.7
10 13116 IR004  10.7
10 13117 IR004   7.1
10 13118 IR004  10.7
10 13119 IR004   7.1
10 13120 IR004  10.7
10 13121 IR004   3.6
10 13134 IR004   8.9
10 13136 IR004   7.1
10 13137 IR004   7.1
10 13163 IR004   8.5
10 13166 IR004   8.5
10 13177 IR004   8.5
10 13179 IR004   8.5
10 13183 IR004   8.5
10 13186 IR004   8.5
10 13189 IR004   8.5
10 13191 IR004   8.5
10 13194 IR004   8.5
10 13201 IR004   8.4
10 13202 IR004   8.4
10 13203 IR004   8.4
10 13204 IR004   8.4
10 13205 IR004   8.4
10 13206 IR004   8.4
10 13207 IR004   8.4
10 13209 IR004   8.5
10 13210 IR004   8.4
10 13211 IR004   8.4
10 13212 IR004   8.4
10 13213 IR004   8.4
10 13214 IR004   8.4
10 13216 IR004   8.4
10 13217 IR004   8.4
10 13218 IR004   8.4
10 13219 IR004   8.5
10 13220 IR004   8.5
10 13221 IR004   8.5
10 13223 IR004   8.5
10 13224 IR004   8.5
10 13225 IR004   8.5
10 13229 IR004   8.5
10 13230 IR004   8.5
10 13231 IR004   8.5
10 13232 IR004   8.5
10 13233 IR004   8.5
10 13234 IR004   8.5
10 13235 IR004   8.5
10 13237 IR004   8.5
10 13240 IR004   4.2
10 13242 IR004   4.2
10 13245 IR004   4.2
10 13246 IR004   4.2
10 13248 IR004   8.5
10 13250 IR004   8.5
10 13256 IR004   8.5
@I  EFIR  IDEP  ITHR  IEPT  IOFF  IAME  IAMT
11  1.00   30.   30.  100. GS000 IR005   10.
@I IDATE  IROP IRVAL
11 13113 IR004   6.4
11 13114 IR004   9.8
11 13115 IR004  10.7
11 13116 IR004  10.7
11 13117 IR004   7.1
11 13118 IR004  10.7
11 13119 IR004   7.1
11 13120 IR004  10.7
11 13121 IR004   3.6
11 13134 IR004   8.9
11 13136 IR004   7.1
11 13137 IR004   7.1
11 13163 IR004   8.5
11 13166 IR004   8.5
11 13177 IR004   8.5
11 13179 IR004   8.5
11 13183 IR004   8.5
11 13186 IR004   8.5
11 13189 IR004   8.5
11 13191 IR004   8.5
11 13194 IR004   8.5
11 13201 IR004   8.4
11 13202 IR004   8.4
11 13203 IR004   8.4
11 13204 IR004   8.4
11 13205 IR004   8.4
11 13206 IR004   8.4
11 13207 IR004   8.4
11 13209 IR004   8.4
11 13210 IR004   8.4
11 13211 IR004   8.4
11 13212 IR004   8.4
11 13213 IR004   8.4
11 13214 IR004   8.4
11 13216 IR004   8.4
11 13217 IR004   8.4
11 13218 IR004   8.4
11 13219 IR004   8.5
11 13221 IR004   8.5
11 13224 IR004   8.5
11 13229 IR004   8.5
11 13231 IR004   8.5
11 13233 IR004   8.5
11 13235 IR004   8.5
11 13238 IR004   4.2
11 13239 IR004   4.2
11 13240 IR004   4.2
11 13242 IR004   4.2
11 13245 IR004   4.2
11 13246 IR004   4.2
11 13248 IR004   8.5
11 13250 IR004   8.5
11 13256 IR004   8.5
@I  EFIR  IDEP  ITHR  IEPT  IOFF  IAME  IAMT
12  1.00   30.   30.  100. GS000 IR005   10.
@I IDATE  IROP IRVAL
12 13113 IR004   6.4
12 13114 IR004   9.8
12 13115 IR004  10.7
12 13116 IR004  10.7
12 13117 IR004   7.1
12 13118 IR004  10.7
12 13119 IR004   7.1
12 13120 IR004  10.7
12 13121 IR004   3.6
12 13134 IR004   8.9
12 13136 IR004   7.1
12 13137 IR004   7.1
12 13163 IR004   8.5
12 13166 IR004   8.5
12 13177 IR004   8.5
12 13179 IR004   8.5
12 13183 IR004   8.5
12 13186 IR004   8.5
12 13189 IR004   8.5
12 13191 IR004   8.5
12 13194 IR004   8.5
12 13201 IR004   8.4
12 13202 IR004   8.4
12 13203 IR004   8.4
12 13204 IR004   8.4
12 13205 IR004   8.4
12 13206 IR004   8.4
12 13207 IR004   8.4
12 13209 IR004   8.4
12 13210 IR004   8.4
12 13211 IR004   8.4
12 13212 IR004   8.4
12 13213 IR004   8.4
12 13214 IR004   8.4
12 13216 IR004   8.4
12 13217 IR004   8.4
12 13218 IR004   8.4
@I  EFIR  IDEP  ITHR  IEPT  IOFF  IAME  IAMT
13  1.00   30.   30.  100. GS000 IR005   10.
@I IDATE  IROP IRVAL
13 13113 IR004   6.4
13 13114 IR004   9.8
13 13115 IR004  10.7
13 13116 IR004  10.7
13 13117 IR004   7.1
13 13118 IR004  10.7
13 13119 IR004   7.1
13 13120 IR004  10.7
13 13121 IR004   3.6
13 13134 IR004   8.9
13 13136 IR004   7.1
13 13137 IR004   7.1
13 13163 IR004   8.5
13 13166 IR004   8.5
13 13177 IR004   8.5
13 13179 IR004   8.5
13 13183 IR004   8.5
13 13186 IR004   8.5
13 13189 IR004   8.5
13 13191 IR004   8.5
13 13194 IR004   8.5
13 13201 IR004   8.4
13 13203 IR004   8.4
13 13205 IR004   8.4
13 13207 IR004   8.4
13 13210 IR004   8.4
13 13212 IR004   8.4
13 13214 IR004   8.4
13 13217 IR004   8.4
13 13219 IR004   8.5
13 13220 IR004   8.5
13 13221 IR004   8.5
13 13223 IR004   8.5
13 13224 IR004   8.5
13 13225 IR004   8.5
13 13229 IR004   8.5
13 13230 IR004   8.5
13 13231 IR004   8.5
13 13232 IR004   8.5
13 13233 IR004   8.5
13 13234 IR004   8.5
13 13235 IR004   8.5
13 13237 IR004   8.5
13 13238 IR004   8.5
13 13239 IR004   8.5
13 13240 IR004   8.5
13 13242 IR004   8.5
13 13245 IR004   8.5
13 13246 IR004   8.5
13 13248 IR004   8.5
13 13250 IR004   8.5
13 13256 IR004   8.5
@I  EFIR  IDEP  ITHR  IEPT  IOFF  IAME  IAMT
14  1.00   30.   30.  100. GS000 IR005   10.
@I IDATE  IROP IRVAL
14 13113 IR004   6.4
14 13114 IR004   9.8
14 13115 IR004  10.7
14 13116 IR004  10.7
14 13117 IR004   7.1
14 13118 IR004  10.7
14 13119 IR004   7.1
14 13120 IR004  10.7
14 13121 IR004   3.6
14 13134 IR004   8.9
14 13136 IR004   7.1
14 13137 IR004   7.1
14 13163 IR004   8.5
14 13166 IR004   8.5
14 13177 IR004   8.5
14 13179 IR004   8.5
14 13183 IR004   8.5
14 13186 IR004   8.5
14 13189 IR004   8.5
14 13191 IR004   8.5
14 13194 IR004   8.5
14 13201 IR004   8.4
14 13203 IR004   8.4
14 13205 IR004   8.4
14 13207 IR004   8.4
14 13210 IR004   8.4
14 13212 IR004   8.4
14 13214 IR004   8.4
14 13217 IR004   8.4
14 13219 IR004   8.5
14 13221 IR004   8.5
14 13224 IR004   8.5
14 13229 IR004   8.5
14 13231 IR004   8.5
14 13233 IR004   8.5
14 13235 IR004   8.5
14 13238 IR004   4.2
14 13239 IR004   4.2
14 13240 IR004   4.2
14 13242 IR004   4.2
14 13245 IR004   4.2
14 13246 IR004   4.2
14 13248 IR004   8.5
14 13250 IR004   8.5
14 13256 IR004   8.5
@I  EFIR  IDEP  ITHR  IEPT  IOFF  IAME  IAMT
15  1.00   30.   30.  100. GS000 IR005   10.
@I IDATE  IROP IRVAL
15 13113 IR004   6.4
15 13114 IR004   9.8
15 13115 IR004  10.7
15 13116 IR004  10.7
15 13117 IR004   7.1
15 13118 IR004  10.7
15 13119 IR004   7.1
15 13120 IR004  10.7
15 13121 IR004   3.6
15 13134 IR004   8.9
15 13136 IR004   7.1
15 13137 IR004   7.1
15 13163 IR004   8.5
15 13166 IR004   8.5
15 13177 IR004   8.5
15 13179 IR004   8.5
15 13183 IR004   8.5
15 13186 IR004   8.5
15 13189 IR004   8.5
15 13191 IR004   8.5
15 13194 IR004   8.5
15 13201 IR004   8.4
15 13203 IR004   8.4
15 13205 IR004   8.4
15 13207 IR004   8.4
15 13210 IR004   8.4
15 13212 IR004   8.4
15 13214 IR004   8.4
15 13217 IR004   8.4
@I  EFIR  IDEP  ITHR  IEPT  IOFF  IAME  IAMT
16  1.00   30.   30.  100. GS000 IR005   10.
@I IDATE  IROP IRVAL
16 13113 IR004   6.4
16 13114 IR004   9.8
16 13115 IR004  10.7
16 13116 IR004  10.7
16 13117 IR004   7.1
16 13118 IR004  10.7
16 13119 IR004   7.1
16 13120 IR004  10.7
16 13121 IR004   3.6
16 13134 IR004   8.9
16 13136 IR004   7.1
16 13137 IR004   7.1
16 13163 IR004   8.5
16 13166 IR004   8.5
16 13177 IR004   8.5
16 13179 IR004   8.5
16 13183 IR004   8.5
16 13186 IR004   8.5
16 13189 IR004   8.5
16 13191 IR004   8.5
16 13194 IR004   8.5
16 13219 IR004   8.5
16 13220 IR004   8.5
16 13221 IR004   8.5
16 13223 IR004   8.5
16 13224 IR004   8.5
16 13225 IR004   8.5
16 13229 IR004   8.5
16 13230 IR004   8.5
16 13231 IR004   8.5
16 13232 IR004   8.5
16 13233 IR004   8.5
16 13234 IR004   8.5
16 13235 IR004   8.5
16 13237 IR004   8.5
16 13238 IR004   8.5
16 13239 IR004   8.5
16 13240 IR004   8.5
16 13242 IR004   8.5
16 13245 IR004   8.5
16 13246 IR004   8.5
16 13248 IR004   8.5
16 13250 IR004   8.5
16 13256 IR004   8.5
@I  EFIR  IDEP  ITHR  IEPT  IOFF  IAME  IAMT
17  1.00   30.   30.  100. GS000 IR005   10.
@I IDATE  IROP IRVAL
17 13113 IR004   6.4
17 13114 IR004   9.8
17 13115 IR004  10.7
17 13116 IR004  10.7
17 13117 IR004   7.1
17 13118 IR004  10.7
17 13119 IR004   7.1
17 13120 IR004  10.7
17 13121 IR004   3.6
17 13134 IR004   8.9
17 13136 IR004   7.1
17 13137 IR004   7.1
17 13163 IR004   8.5
17 13166 IR004   8.5
17 13177 IR004   8.5
17 13179 IR004   8.5
17 13183 IR004   8.5
17 13186 IR004   8.5
17 13189 IR004   8.5
17 13191 IR004   8.5
17 13194 IR004   8.5
17 13219 IR004   8.5
17 13221 IR004   8.5
17 13224 IR004   8.5
17 13229 IR004   8.5
17 13231 IR004   8.5
17 13233 IR004   8.5
17 13235 IR004   8.5
17 13238 IR004   4.2
17 13239 IR004   4.2
17 13240 IR004   4.2
17 13242 IR004   4.2
17 13245 IR004   4.2
17 13246 IR004   4.2
17 13248 IR004   8.5
17 13250 IR004   8.5
17 13256 IR004   8.5
@I  EFIR  IDEP  ITHR  IEPT  IOFF  IAME  IAMT
18  1.00   30.   30.  100. GS000 IR005   10.
@I IDATE  IROP IRVAL
18 13113 IR004   6.4
18 13114 IR004   9.8
18 13115 IR004  10.7
18 13116 IR004  10.7
18 13117 IR004   7.1
18 13118 IR004  10.7
18 13119 IR004   7.1
18 13120 IR004  10.7
18 13121 IR004   3.6
18 13134 IR004   8.9
18 13136 IR004   7.1
18 13137 IR004   7.1
18 13163 IR004   8.5
18 13166 IR004   8.5
18 13177 IR004   8.5
18 13179 IR004   8.5
18 13183 IR004   8.5
18 13186 IR004   8.5
18 13189 IR004   8.5
18 13191 IR004   8.5
18 13194 IR004   8.5
@I  EFIR  IDEP  ITHR  IEPT  IOFF  IAME  IAMT
19  1.00   30.   30.  100. GS000 IR005   10.
@I IDATE  IROP IRVAL
19 13113 IR004   6.4
19 13114 IR004   9.8
19 13115 IR004  10.7
19 13116 IR004  10.7
19 13117 IR004   7.1
19 13118 IR004  10.7
19 13119 IR004   7.1
19 13120 IR004  10.7
19 13121 IR004   3.6
19 13134 IR004   8.9
19 13136 IR004   7.1
19 13137 IR004   7.1
19 13201 IR004   8.4
19 13202 IR004   8.4
19 13203 IR004   8.4
19 13204 IR004   8.4
19 13205 IR004   8.4
19 13206 IR004   8.4
19 13207 IR004   8.4
19 13209 IR004   8.4
19 13210 IR004   8.4
19 13211 IR004   8.4
19 13212 IR004   8.4
19 13213 IR004   8.4
19 13214 IR004   8.4
19 13216 IR004   8.4
19 13217 IR004   8.4
19 13218 IR004   8.5
19 13219 IR004   8.5
19 13220 IR004   8.5
19 13221 IR004   8.5
19 13223 IR004   8.5
19 13224 IR004   8.5
19 13225 IR004   8.5
19 13229 IR004   8.5
19 13230 IR004   8.5
19 13231 IR004   8.5
19 13232 IR004   8.5
19 13233 IR004   8.5
19 13234 IR004   8.5
19 13235 IR004   8.5
19 13237 IR004   8.5
19 13238 IR004   8.5
19 13239 IR004   8.5
19 13240 IR004   8.5
19 13242 IR004   8.5
19 13245 IR004   8.5
19 13246 IR004   8.5
19 13248 IR004   8.5
19 13250 IR004   8.5
19 13256 IR004   8.5
@I  EFIR  IDEP  ITHR  IEPT  IOFF  IAME  IAMT
20  1.00   30.   30.  100. GS000 IR005   10.
@I IDATE  IROP IRVAL
20 13113 IR004   6.4
20 13114 IR004   9.8
20 13115 IR004  10.7
20 13116 IR004  10.7
20 13117 IR004   7.1
20 13118 IR004  10.7
20 13119 IR004   7.1
20 13120 IR004  10.7
20 13121 IR004   3.6
20 13134 IR004   8.9
20 13136 IR004   7.1
20 13137 IR004   7.1
20 13201 IR004   8.4
20 13202 IR004   8.4
20 13203 IR004   8.4
20 13204 IR004   8.4
20 13205 IR004   8.4
20 13206 IR004   8.4
20 13207 IR004   8.4
20 13209 IR004   8.4
20 13210 IR004   8.4
20 13211 IR004   8.4
20 13212 IR004   8.4
20 13213 IR004   8.4
20 13214 IR004   8.4
20 13216 IR004   8.4
20 13217 IR004   8.4
20 13218 IR004   8.4
20 13219 IR004   8.5
20 13221 IR004   8.5
20 13224 IR004   8.5
20 13229 IR004   8.5
20 13231 IR004   8.5
20 13233 IR004   8.5
20 13235 IR004   8.5
20 13238 IR004   4.2
20 13239 IR004   4.2
20 13240 IR004   4.2
20 13242 IR004   4.2
20 13245 IR004   4.2
20 13246 IR004   4.2
20 13248 IR004   8.5
20 13250 IR004   8.5
20 13256 IR004   8.5
@I  EFIR  IDEP  ITHR  IEPT  IOFF  IAME  IAMT
21  1.00   30.   30.  100. GS000 IR005   10.
@I IDATE  IROP IRVAL
21 13113 IR004   6.4
21 13114 IR004   9.8
21 13115 IR004  10.7
21 13116 IR004  10.7
21 13117 IR004   7.1
21 13118 IR004  10.7
21 13119 IR004   7.1
21 13120 IR004  10.7
21 13121 IR004   3.6
21 13134 IR004   8.9
21 13136 IR004   7.1
21 13137 IR004   7.1
21 13201 IR004   8.4
21 13202 IR004   8.4
21 13203 IR004   8.4
21 13204 IR004   8.4
21 13205 IR004   8.4
21 13206 IR004   8.4
21 13207 IR004   8.4
21 13209 IR004   8.4
21 13210 IR004   8.4
21 13211 IR004   8.4
21 13212 IR004   8.4
21 13213 IR004   8.4
21 13214 IR004   8.4
21 13216 IR004   8.4
21 13217 IR004   8.4
21 13218 IR004   8.4
@I  EFIR  IDEP  ITHR  IEPT  IOFF  IAME  IAMT
22  1.00   30.   30.  100. GS000 IR005   10.
@I IDATE  IROP IRVAL
22 13113 IR004   6.4
22 13114 IR004   9.8
22 13115 IR004  10.7
22 13116 IR004  10.7
22 13117 IR004   7.1
22 13118 IR004  10.7
22 13119 IR004   7.1
22 13120 IR004  10.7
22 13121 IR004   3.6
22 13134 IR004   8.9
22 13136 IR004   7.1
22 13137 IR004   7.1
22 13201 IR004   8.4
22 13203 IR004   8.4
22 13205 IR004   8.4
22 13207 IR004   8.4
22 13210 IR004   8.4
22 13212 IR004   8.4
22 13214 IR004   8.4
22 13217 IR004   8.4
22 13219 IR004   8.5
22 13220 IR004   8.5
22 13221 IR004   8.5
22 13223 IR004   8.5
22 13224 IR004   8.5
22 13225 IR004   8.5
22 13229 IR004   8.5
22 13230 IR004   8.5
22 13231 IR004   8.5
22 13232 IR004   8.5
22 13233 IR004   8.5
22 13234 IR004   8.5
22 13235 IR004   8.5
22 13237 IR004   8.5
22 13238 IR004   8.5
22 13239 IR004   8.5
22 13240 IR004   8.5
22 13242 IR004   8.5
22 13245 IR004   8.5
22 13246 IR004   8.5
22 13248 IR004   8.5
22 13250 IR004   8.5
22 13256 IR004   8.5
@I  EFIR  IDEP  ITHR  IEPT  IOFF  IAME  IAMT
23  1.00   30.   30.  100. GS000 IR005   10.
@I IDATE  IROP IRVAL
23 13113 IR004   6.4
23 13114 IR004   9.8
23 13115 IR004  10.7
23 13116 IR004  10.7
23 13117 IR004   7.1
23 13118 IR004  10.7
23 13119 IR004   7.1
23 13120 IR004  10.7
23 13121 IR004   3.6
23 13134 IR004   8.9
23 13136 IR004   7.1
23 13137 IR004   7.1
23 13201 IR004   8.4
23 13203 IR004   8.4
23 13205 IR004   8.4
23 13207 IR004   8.4
23 13210 IR004   8.4
23 13212 IR004   8.5
23 13214 IR004   8.4
23 13217 IR004   8.4
23 13219 IR004   8.4
23 13221 IR004   8.5
23 13224 IR004   8.5
23 13229 IR004   8.5
23 13231 IR004   8.5
23 13233 IR004   8.5
23 13235 IR004   8.5
23 13238 IR004   4.2
23 13239 IR004   4.2
23 13240 IR004   4.2
23 13242 IR004   4.2
23 13245 IR004   4.2
23 13246 IR004   4.2
23 13248 IR004   8.5
23 13250 IR004   8.5
23 13256 IR004   8.5
@I  EFIR  IDEP  ITHR  IEPT  IOFF  IAME  IAMT
24  1.00   30.   30.  100. GS000 IR005   10.
@I IDATE  IROP IRVAL
24 13113 IR004   6.4
24 13114 IR004   9.8
24 13115 IR004  10.7
24 13116 IR004  10.7
24 13117 IR004   7.1
24 13118 IR004  10.7
24 13119 IR004   7.1