*EXP.DETAILS: TXHW1101CO 2011 TX, Halfway, irrigation
*General
@PEOPLE
 Ale, Srinivasulu
@ADDRESS
 Texas A&M AgriLife Research, P.O. Box 1658 | Vernon, TX 76385 (Ph)(940) 552-9941 x 232 sriniale@ag.tamu.edu
@SITE
 HW-Halfway, TX  Location 34.15N;102.95W;1038m
@   PAREA  PRNO  PLEN  PLDR  PLSP  PLAY HAREA  HRNO  HLEN  HARM
    683.0    16  43.0         101       341.0     8  43.0
@NOTES
! References:
! 
! Bordovsky, J. P., J. T. Mustian, G. L. Ritchie, K. L. Lewis, J. T. Mustian, G.
! L. Ritchie, K. L. Lewis. 2015. Cotton irrigation timing with variable seasonal
! irrigation capacities in the Texas South Plains. Appl. Eng. Agric. 31(6):
! 883-897. DOI 10.13031/aea.31.10953
! 
! Adhikari, P., A. S. Ale, J. P. Bordovsky, K. R. Thorp, N. R. Modala, N. Rajan,
! E. M. Barnes. 2016. Simulating future climate change impacts on seed cotton
! yield in the Texas High Plains using the CSM-CROPGRO-Cotton model. Agric. Water
! Management 164: 317-330. http://dx.doi.org/10.1016/j.agwat.2015.10.011
! 
! Data supplied by Bordovsky; data files created by Adhikari under direction of
! Ale; files modified by Gail Wilkerson, NCSU, gail_wilkerson@ncsu.edu (21 Mar 2018)
!
! Note that rooting depth is limited by soil water falling below the wilting
! point in lower layers. It took a while to figure out why rooting depth was not
! determined by SRGF in soil file. This is related to choosing option S for
! MESEV--this routine allows bare soil ET to pull water all the way from the
! bottom of the profile, even below the wilting point. I'm not convinced that
! soil water should ever drop below wilting point in these lower layers. In the
! model, soil evaporation moves water up from all layers, even 210 cm down, prior
! to planting, when simulation starts on Jan. 1. Seems like there should be a
! limit on this to just the top 20-30 cm max. I decided to leave initial soil
! water low enough for this to happen primarily because having these different
! rooting depths for different years gave such good fit to the data, and there
! was very little rainfall to fill up the lower layers of the soil profile during
! the winter each year. So maybe soil water didn't get below the wilting point,
! but maybe it got down to the wilting point at the end of one growing season,
! with insufficient water in the winter, or irrigation, to fill these lower
! layers back up. Interesting question for future research, if no information in
! literature that I've missed. Gail Wilkerson (4/5/2018)

*TREATMENTS
@N R O C TNAME.................... CU FL SA IC MP MI MF MR MC MT ME MH SM
 1 1 0 0 HHH                        1  1  1  1  1  1  1  0  0  1  0  1  1
 2 1 0 0 HHM                        1  1  1  1  1  2  1  0  0  1  0  1  1
 3 1 0 0 HHL                        1  1  1  1  1  3  1  0  0  1  0  1  1
 4 1 0 0 HMH                        1  1  1  1  1  4  1  0  0  1  0  1  1
 5 1 0 0 HMM                        1  1  1  1  1  5  1  0  0  1  0  1  1
 6 1 0 0 HML                        1  1  1  1  1  6  1  0  0  1  0  1  1
 7 1 0 0 HLH                        1  1  1  1  1  7  1  0  0  1  0  1  1
 8 1 0 0 HLM                        1  1  1  1  1  8  1  0  0  1  0  1  1
 9 1 0 0 HLL                        1  1  1  1  1  9  1  0  0  1  0  1  1
10 1 0 0 MHH                        1  1  1  1  1 10  1  0  0  1  0  1  1
11 1 0 0 MHM                        1  1  1  1  1 11  1  0  0  1  0  1  1
12 1 0 0 MHL                        1  1  1  1  1 12  1  0  0  1  0  1  1
13 1 0 0 MMH                        1  1  1  1  1 13  1  0  0  1  0  1  1
14 1 0 0 MMM                        1  1  1  1  1 14  1  0  0  1  0  1  1
15 1 0 0 MML                        1  1  1  1  1 15  1  0  0  1  0  1  1
16 1 0 0 MLH                        1  1  1  1  1 16  1  0  0  1  0  1  1
17 1 0 0 MLM                        1  1  1  1  1 17  1  0  0  1  0  1  1
18 1 0 0 MLL                        1  1  1  1  1 18  1  0  0  1  0  1  1
19 1 0 0 LHH                        1  1  1  1  1 19  1  0  0  1  0  1  1
20 1 0 0 LHM                        1  1  1  1  1 20  1  0  0  1  0  1  1
21 1 0 0 LHL                        1  1  1  1  1 21  1  0  0  1  0  1  1
22 1 0 0 LMH                        1  1  1  1  1 22  1  0  0  1  0  1  1
23 1 0 0 LMM                        1  1  1  1  1 23  1  0  0  1  0  1  1
24 1 0 0 LML                        1  1  1  1  1 24  1  0  0  1  0  1  1
25 1 0 0 LLH                        1  1  1  1  1 25  1  0  0  1  0  1  1
26 1 0 0 LLM                        1  1  1  1  1 26  1  0  0  1  0  1  1
27 1 0 0 LLL                        1  1  1  1  1 27  1  0  0  1  0  1  1

*CULTIVARS
@C CR INGENO CNAME...........
 1 CO CO0028 FiberMax 9680B2R

*FIELDS
@L ID_FIELD WSTA....  FLSA  FLOB  FLDT  FLDD  FLDS  FLST SLTX   SLDP ID_SOIL
 1 TXHW0001 TXHW1101 -99     -99 DR000   -99   -99 0     CL     210. TXHW100001
@L ...........XCRD ...........YCRD .....ELEV .............AREA .SLEN .FLWR .SLAS FLHST FHDUR
 1        34.35000      -101.95100   1038.00               -99   -99   -99   -99

*SOIL ANALYSIS
@A SADAT  SMHB  SMPX  SMKE SANAME........................................
 1 11252 SA011 -99   -99   HHH

*INITIAL CONDITIONS
@C   PCR ICDAT  ICRT  ICND  ICRN  ICRE  ICWD ICRES ICREN ICREP ICRIP ICRID
 1    CO 11001   -99   -99  0.00  0.00   -99   -99   -99   -99   -99   -99
@C  ICBL  SH2O  SNH4  SNO3
 1    5. 0.180   0.3  40.0
 1   15. 0.180   0.3  40.0
 1   30. 0.180   0.3  40.0
 1   45. 0.180   0.3  40.0
 1   60. 0.180   0.3  40.0
 1   90. 0.180   0.3  40.0
 1  120. 0.180   0.3   6.0
 1  150. 0.180   0.3   4.0
 1  180. 0.180   0.3   2.0
 1  210. 0.180   0.3   0.1

*PLANTING DETAILS
@P PDATE EDATE  PPOP  PPOE  PLME  PLDS  PLRS  PLRD  PLDP  PLWT  PAGE  PENV  PLPH  SPRL
 1 11131   -99  11.5  11.5     S     R 100.0   -99   3.8   -99   -99   -99   -99   -99

*IRRIGATION AND WATER MANAGEMENT
@I  EFIR  IDEP  ITHR  IEPT  IOFF  IAME  IAMT
 1  1.00   30.   30.  100. GS000 IR005   10.
@I IDATE  IROP IRVAL
 1 11095 IR004   9.1
 1 11096 IR004   9.1
 1 11097 IR004  13.7
 1 11098 IR004  13.7
 1 11099 IR004   9.1
 1 11122 IR004   4.6
 1 11123 IR004   4.6
 1 11124 IR004   4.6
 1 11125 IR004   6.4
 1 11127 IR004  12.7
 1 11132 IR004   9.1
 1 11135 IR004   4.6
 1 11136 IR004   4.6
 1 11138 IR004   4.6
 1 11139 IR004   9.1
 1 11141 IR004   9.6
 1 11144 IR004   9.1
 1 11165 IR004  12.7
 1 11166 IR004  12.7
 1 11167 IR004  12.7
 1 11171 IR004  12.7
 1 11172 IR004  12.7
 1 11173 IR004  12.7
 1 11180 IR004  12.7
 1 11182 IR004  12.7
 1 11184 IR004  12.7
 1 11186 IR004  12.7
 1 11187 IR004  12.7
 1 11188 IR004  12.7
 1 11191 IR004  12.7
 1 11194 IR004   6.4
 1 11196 IR004   6.4
 1 11198 IR004  12.7
 1 11200 IR004  12.7
 1 11202 IR004  12.7
 1 11203 IR004  12.7
 1 11205 IR004  12.7
 1 11207 IR004  12.7
 1 11209 IR004  12.7
 1 11211 IR004  12.7
 1 11213 IR004  12.7
 1 11215 IR004  12.7
 1 11217 IR004  12.7
 1 11219 IR004  12.7
 1 11221 IR004  12.7
 1 11223 IR004  12.7
 1 11225 IR004  12.7
 1 11227 IR004  12.7
 1 11229 IR004  12.7
 1 11231 IR004  12.7
 1 11233 IR004  12.7
 1 11235 IR004   6.4
 1 11237 IR004   6.4
 1 11240 IR004   6.4
 1 11242 IR004   7.6
@I  EFIR  IDEP  ITHR  IEPT  IOFF  IAME  IAMT
 2  1.00   30.   30.  100. GS000 IR005   10.
@I IDATE  IROP IRVAL
 2 11095 IR004   9.1
 2 11096 IR004   9.1
 2 11097 IR004  13.7
 2 11098 IR004  13.7
 2 11099 IR004   9.1
 2 11122 IR004   4.6
 2 11123 IR004   4.6
 2 11124 IR004   4.6
 2 11125 IR004   6.4
 2 11126 IR004  12.7
 2 11132 IR004   9.1
 2 11135 IR004   4.5
 2 11136 IR004   4.5
 2 11138 IR004   4.5
 2 11139 IR004   9.1
 2 11141 IR004   9.5
 2 11144 IR004   9.1
 2 11165 IR004  12.7
 2 11166 IR004  12.7
 2 11167 IR004  12.7
 2 11171 IR004  12.7
 2 11172 IR004  12.7
 2 11173 IR004  12.7
 2 11180 IR004  12.7
 2 11182 IR004  12.7
 2 11184 IR004  12.7
 2 11186 IR004  12.7
 2 11187 IR004  12.7
 2 11188 IR004  12.7
 2 11191 IR004  12.7
 2 11194 IR004   6.3
 2 11196 IR004   6.3
 2 11198 IR004  12.7
 2 11200 IR004  12.7
 2 11202 IR004  12.7
 2 11203 IR004  12.7
 2 11205 IR004  12.7
 2 11207 IR004  12.7
 2 11209 IR004  12.7
 2 11211 IR004  12.7
 2 11213 IR004  12.7
 2 11215 IR004  12.7
 2 11217 IR004   6.4
 2 11219 IR004   6.4
 2 11221 IR004   6.4
 2 11223 IR004   6.3
 2 11225 IR004   6.4
 2 11227 IR004   6.4
 2 11229 IR004   6.3
 2 11231 IR004   6.4
 2 11233 IR004   6.3
 2 11235 IR004   6.4
 2 11237 IR004   6.4
 2 11240 IR004   6.4
 2 11242 IR004  12.7
@I  EFIR  IDEP  ITHR  IEPT  IOFF  IAME  IAMT
 3  1.00   30.   30.  100. GS000 IR005   10.
@I IDATE  IROP IRVAL
 3 11095 IR004   9.1
 3 11096 IR004   9.1
 3 11097 IR004  13.7
 3 11098 IR004  13.7
 3 11099 IR004   9.1
 3 11122 IR004   4.6
 3 11123 IR004   4.6
 3 11124 IR004   4.6
 3 11125 IR004   6.4
 3 11126 IR004  12.7
 3 11132 IR004   9.1
 3 11135 IR004   4.6
 3 11136 IR004   4.6
 3 11138 IR004   4.6
 3 11139 IR004   9.1
 3 11141 IR004   9.6
 3 11144 IR004   9.1
 3 11165 IR004  12.7
 3 11166 IR004  12.7
 3 11167 IR004  12.7
 3 11171 IR004  12.7
 3 11172 IR004  12.7
 3 11173 IR004  12.7
 3 11180 IR004  12.7
 3 11182 IR004  12.7
 3 11184 IR004  12.7
 3 11186 IR004  12.7
 3 11187 IR004  12.7
 3 11188 IR004  12.7
 3 11191 IR004  12.7
 3 11194 IR004   6.4
 3 11196 IR004   6.4
 3 11198 IR004  12.7
 3 11200 IR004  12.7
 3 11202 IR004  12.7
 3 11203 IR004  12.7
 3 11205 IR004  12.7
 3 11207 IR004  12.7
 3 11209 IR004  12.7
 3 11211 IR004  12.7
 3 11213 IR004  12.7
 3 11215 IR004  12.7
@I  EFIR  IDEP  ITHR  IEPT  IOFF  IAME  IAMT
 4  1.00   30.   30.  100. GS000 IR005   10.
@I IDATE  IROP IRVAL
 4 11095 IR004   9.1
 4 11096 IR004   9.1
 4 11097 IR004  13.7
 4 11098 IR004  13.7
 4 11099 IR004   9.1
 4 11122 IR004   4.6
 4 11123 IR004   4.6
 4 11124 IR004   4.6
 4 11125 IR004   6.4
 4 11126 IR004  12.7
 4 11132 IR004   9.1
 4 11135 IR004   4.6
 4 11136 IR004   4.6
 4 11138 IR004   4.6
 4 11139 IR004   9.1
 4 11141 IR004   9.6
 4 11144 IR004   9.1
 4 11165 IR004  12.7
 4 11166 IR004  12.7
 4 11167 IR004  12.7
 4 11171 IR004  12.7
 4 11172 IR004  12.7
 4 11173 IR004  12.7
 4 11180 IR004  12.7
 4 11182 IR004  12.7
 4 11184 IR004  12.7
 4 11186 IR004  12.7
 4 11187 IR004  12.7
 4 11188 IR004  12.7
 4 11191 IR004  12.7
 4 11194 IR004   6.4
 4 11196 IR004   6.4
 4 11198 IR004   6.4
 4 11200 IR004   6.4
 4 11202 IR004   6.4
 4 11203 IR004   6.4
 4 11205 IR004   6.4
 4 11207 IR004   6.4
 4 11209 IR004   6.4
 4 11211 IR004   6.4
 4 11213 IR004   6.4
 4 11215 IR004   6.4
 4 11217 IR004  12.7
 4 11219 IR004  12.7
 4 11221 IR004  12.7
 4 11223 IR004  12.7
 4 11225 IR004  12.7
 4 11226 IR004  12.7
 4 11229 IR004  12.7
 4 11231 IR004  12.7
 4 11233 IR004  12.7
 4 11235 IR004  12.7
 4 11237 IR004  12.7
 4 11240 IR004  12.7
 4 11242 IR004   5.1
@I  EFIR  IDEP  ITHR  IEPT  IOFF  IAME  IAMT
 5  1.00   30.   30.  100. GS000 IR005   10.
@I IDATE  IROP IRVAL
 5 11095 IR004   9.1
 5 11096 IR004   9.1
 5 11097 IR004  13.7
 5 11098 IR004  13.7
 5 11099 IR004   9.1
 5 11122 IR004   4.6
 5 11123 IR004   4.6
 5 11124 IR004   4.6
 5 11125 IR004   6.4
 5 11126 IR004  12.7
 5 11132 IR004   9.1
 5 11135 IR004   4.6
 5 11136 IR004   4.6
 5 11138 IR004   4.6
 5 11139 IR004   9.1
 5 11141 IR004   9.7
 5 11144 IR004   9.1
 5 11165 IR004  12.7
 5 11166 IR004  12.7
 5 11167 IR004  12.7
 5 11171 IR004  12.7
 5 11172 IR004  12.7
 5 11173 IR004  12.7
 5 11180 IR004  12.7
 5 11182 IR004  12.7
 5 11184 IR004  12.7
 5 11186 IR004  12.7
 5 11187 IR004  12.7
 5 11188 IR004  12.7
 5 11191 IR004  12.7
 5 11194 IR004   6.4
 5 11196 IR004   6.4
 5 11198 IR004   6.4
 5 11200 IR004   6.4
 5 11202 IR004   6.4
 5 11203 IR004   6.4
 5 11205 IR004   6.4
 5 11207 IR004   6.4
 5 11209 IR004   6.4
 5 11211 IR004   6.4
 5 11213 IR004   6.4
 5 11215 IR004   6.4
 5 11217 IR004   6.4
 5 11219 IR004   6.4
 5 11221 IR004   6.4
 5 11223 IR004   6.4
 5 11225 IR004   6.4
 5 11227 IR004   6.4
 5 11229 IR004   6.4
 5 11231 IR004   6.4
 5 11233 IR004   6.4
 5 11235 IR004   6.4
 5 11237 IR004   6.4
 5 11240 IR004   6.4
 5 11242 IR004  10.2
@I  EFIR  IDEP  ITHR  IEPT  IOFF  IAME  IAMT
 6  1.00   30.   30.  100. GS000 IR005   10.
@I IDATE  IROP IRVAL
 6 11095 IR004   9.1
 6 11096 IR004   9.1
 6 11097 IR004  13.7
 6 11098 IR004  13.7
 6 11099 IR004   9.1
 6 11122 IR004   4.6
 6 11123 IR004   4.6
 6 11124 IR004   4.6
 6 11125 IR004   6.4
 6 11126 IR004  12.7
 6 11132 IR004   9.1
 6 11135 IR004   4.6
 6 11136 IR004   4.6
 6 11137 IR004   4.6
 6 11139 IR004   9.1
 6 11141 IR004   9.7
 6 11144 IR004   9.1
 6 11165 IR004  12.7
 6 11166 IR004  12.7
 6 11167 IR004  12.7
 6 11171 IR004  12.7
 6 11172 IR004  12.7
 6 11173 IR004  12.7
 6 11180 IR004  12.7
 6 11182 IR004  12.7
 6 11184 IR004  12.7
 6 11186 IR004  12.7
 6 11187 IR004  12.7
 6 11188 IR004  12.7
 6 11191 IR004  12.7
 6 11194 IR004   6.4
 6 11196 IR004   6.4
 6 11198 IR004   6.4
 6 11200 IR004   6.4
 6 11202 IR004   6.4
 6 11203 IR004   6.4
 6 11205 IR004   6.4
 6 11207 IR004   6.4
 6 11209 IR004   6.4
 6 11211 IR004   6.4
 6 11213 IR004   6.4
 6 11215 IR004   6.4
@I  EFIR  IDEP  ITHR  IEPT  IOFF  IAME  IAMT
 7  1.00   30.   30.  100. GS000 IR005   10.
@I IDATE  IROP IRVAL
 7 11095 IR004   9.1
 7 11096 IR004   9.1
 7 11097 IR004  13.7
 7 11098 IR004  13.7
 7 11099 IR004   9.1
 7 11122 IR004   4.6
 7 11123 IR004   4.6
 7 11124 IR004   4.6
 7 11125 IR004   6.4
 7 11126 IR004  12.7
 7 11132 IR004   9.1
 7 11135 IR004   4.6
 7 11136 IR004   4.6
 7 11138 IR004   4.6
 7 11139 IR004   9.1
 7 11141 IR004   9.7
 7 11144 IR004   9.1
 7 11165 IR004  12.7
 7 11166 IR004  12.7
 7 11167 IR004  12.7
 7 11171 IR004  12.7
 7 11172 IR004  12.7
 7 11173 IR004  12.7
 7 11180 IR004  12.7
 7 11182 IR004  12.7
 7 11184 IR004  12.7
 7 11186 IR004  12.7
 7 11187 IR004  12.7
 7 11188 IR004  12.7
 7 11191 IR004  12.7
 7 11217 IR004  12.7
 7 11219 IR004  12.7
 7 11221 IR004  12.7
 7 11223 IR004  12.7
 7 11225 IR004  12.7
 7 11227 IR004  12.7
 7 11229 IR004  12.7
 7 11231 IR004  12.7
 7 11233 IR004  12.7
 7 11235 IR004  12.7
 7 11237 IR004  12.7
 7 11240 IR004  12.7
 7 11242 IR004   5.1
@I  EFIR  IDEP  ITHR  IEPT  IOFF  IAME  IAMT
 8  1.00   30.   30.  100. GS000 IR005   10.
@I IDATE  IROP IRVAL
 8 11095 IR004   9.1
 8 11096 IR004   9.1
 8 11097 IR004  13.7
 8 11098 IR004  13.7
 8 11099 IR004   9.1
 8 11122 IR004   4.6
 8 11123 IR004   4.6
 8 11124 IR004   4.6
 8 11125 IR004   6.4
 8 11126 IR004  12.7
 8 11132 IR004   9.1
 8 11135 IR004   4.6
 8 11136 IR004   4.6
 8 11138 IR004   4.6
 8 11139 IR004   9.1
 8 11141 IR004   9.6
 8 11144 IR004   9.1
 8 11165 IR004  12.7
 8 11166 IR004  12.7
 8 11167 IR004  12.7
 8 11171 IR004  12.7
 8 11172 IR004  12.7
 8 11173 IR004  12.7
 8 11180 IR004  12.7
 8 11182 IR004  12.7
 8 11184 IR004  12.7
 8 11186 IR004  12.7
 8 11187 IR004  12.7
 8 11188 IR004  12.7
 8 11191 IR004  12.7
 8 11217 IR004   5.4
 8 11219 IR004   6.4
 8 11221 IR004   6.4
 8 11223 IR004   6.4
 8 11225 IR004   6.4
 8 11227 IR004   6.4
 8 11229 IR004   6.4
 8 11231 IR004   6.4
 8 11233 IR004   6.4
 8 11235 IR004   6.4
 8 11237 IR004   6.4
 8 11240 IR004   6.4
 8 11242 IR004  10.1
@I  EFIR  IDEP  ITHR  IEPT  IOFF  IAME  IAMT
 9  1.00   30.   30.  100. GS000 IR005   10.
@I IDATE  IROP IRVAL
 9 11095 IR004   9.1
 9 11096 IR004   9.1
 9 11097 IR004  13.7
 9 11098 IR004  13.7
 9 11099 IR004   9.1
 9 11122 IR004   4.6
 9 11123 IR004   4.6
 9 11124 IR004   4.6
 9 11125 IR004   6.4
 9 11126 IR004  12.7
 9 11132 IR004   9.1
 9 11135 IR004   4.6
 9 11136 IR004   4.6
 9 11138 IR004   4.6
 9 11139 IR004   9.1
 9 11141 IR004   9.7
 9 11144 IR004   9.1
 9 11165 IR004  12.7
 9 11166 IR004  12.7
 9 11167 IR004  12.7
 9 11171 IR004  12.7
 9 11172 IR004  12.7
 9 11173 IR004  12.7
 9 11180 IR004  12.7
 9 11182 IR004  12.7
 9 11184 IR004  12.7
 9 11186 IR004  12.7
 9 11187 IR004  12.7
 9 11188 IR004  12.7
 9 11191 IR004  12.7
@I  EFIR  IDEP  ITHR  IEPT  IOFF  IAME  IAMT
10  1.00   30.   30.  100. GS000 IR005   10.
@I IDATE  IROP IRVAL
10 11095 IR004   9.1
10 11096 IR004   9.1
10 11097 IR004  13.7
10 11098 IR004  13.7
10 11099 IR004   9.1
10 11122 IR004   4.6
10 11123 IR004   4.6
10 11124 IR004   4.6
10 11125 IR004   6.4
10 11126 IR004  12.6
10 11132 IR004   9.1
10 11135 IR004   4.6
10 11136 IR004   4.6
10 11137 IR004   4.5
10 11139 IR004   9.1
10 11141 IR004   9.3
10 11144 IR004   9.1
10 11165 IR004   6.4
10 11166 IR004   6.4
10 11167 IR004   6.4
10 11171 IR004   6.4
10 11172 IR004   6.4
10 11173 IR004   6.4
10 11180 IR004  12.7
10 11182 IR004  12.7
10 11186 IR004   6.4
10 11187 IR004   6.4
10 11188 IR004   6.4
10 11191 IR004   6.4
10 11194 IR004  12.6
10 11196 IR004  12.7
10 11198 IR004  12.7
10 11200 IR004  12.6
10 11202 IR004  12.7
10 11203 IR004  12.7
10 11205 IR004  12.6
10 11207 IR004  12.7
10 11209 IR004  12.7
10 11211 IR004  12.6
10 11213 IR004  12.7
10 11215 IR004  12.7
10 11217 IR004  12.7
10 11219 IR004  12.6
10 11221 IR004  12.7
10 11223 IR004  12.7
10 11225 IR004  12.6
10 11227 IR004  12.7
10 11229 IR004  12.7
10 11231 IR004  12.7
10 11233 IR004  12.7
10 11235 IR004  12.7
10 11237 IR004  12.7
10 11240 IR004  12.7
10 11242 IR004   2.5
@I  EFIR  IDEP  ITHR  IEPT  IOFF  IAME  IAMT
11  1.00   30.   30.  100. GS000 IR005   10.
@I IDATE  IROP IRVAL
11 11095 IR004   9.1
11 11096 IR004   9.1
11 11097 IR004  13.7
11 11098 IR004  13.7
11 11099 IR004   9.1
11 11122 IR004   4.6
11 11123 IR004   4.6
11 11124 IR004   4.6
11 11125 IR004   6.4
11 11126 IR004  12.7
11 11132 IR004   9.1
11 11135 IR004   4.6
11 11136 IR004   4.6
11 11138 IR004   4.6
11 11139 IR004   9.1
11 11141 IR004   9.7
11 11144 IR004   9.1
11 11165 IR004   6.4
11 11166 IR004   6.4
11 11167 IR004   6.3
11 11171 IR004   6.3
11 11172 IR004   6.3
11 11173 IR004   6.4
11 11180 IR004  12.7
11 11182 IR004  12.7
11 11186 IR004   6.4
11 11187 IR004   6.4
11 11188 IR004   6.3
11 11191 IR004   6.3
11 11194 IR004  12.6
11 11196 IR004  12.7
11 11198 IR004  12.7
11 11200 IR004  12.6
11 11202 IR004  12.7
11 11203 IR004  12.7
11 11205 IR004  12.6
11 11207 IR004  12.7
11 11209 IR004  12.7
11 11211 IR004  12.6
11 11213 IR004  12.7
11 11215 IR004  12.7
11 11217 IR004   6.4
11 11219 IR004   6.4
11 11221 IR004   6.4
11 11223 IR004   6.4
11 11225 IR004   6.4
11 11227 IR004   6.4
11 11229 IR004   6.4
11 11231 IR004   6.4
11 11233 IR004   6.4
11 11235 IR004   6.4
11 11237 IR004   6.4
11 11240 IR004   6.4
11 11242 IR004  12.7
@I  EFIR  IDEP  ITHR  IEPT  IOFF  IAME  IAMT
12  1.00   30.   30.  100. GS000 IR005   10.
@I IDATE  IROP IRVAL
12 11095 IR004   9.1
12 11096 IR004   9.1
12 11097 IR004  13.7
12 11098 IR004  13.7
12 11099 IR004   9.1
12 11122 IR004   4.6
12 11123 IR004   4.6
12 11124 IR004   4.6
12 11125 IR004   6.4
12 11126 IR004  12.7
12 11132 IR004   9.1
12 11135 IR004   4.6
12 11136 IR004   4.6
12 11138 IR004   4.6
12 11139 IR004   9.1
12 11141 IR004   9.6
12 11144 IR004   9.1
12 11165 IR004   6.4
12 11166 IR004   6.4
12 11167 IR004   6.4
12 11171 IR004   6.4
12 11172 IR004   6.4
12 11173 IR004   6.4
12 11180 IR004  12.7
12 11182 IR004  12.7
12 11186 IR004   6.4
12 11187 IR004   6.4
12 11188 IR004   6.4
12 11191 IR004   6.4
12 11194 IR004  12.6
12 11196 IR004  12.7
12 11198 IR004  12.7
12 11200 IR004  12.6
12 11202 IR004  12.7
12 11203 IR004  12.7
12 11205 IR004  12.6
12 11207 IR004  12.7
12 11209 IR004  12.7
12 11211 IR004  12.6
12 11213 IR004  12.7
12 11215 IR004  12.7
@I  EFIR  IDEP  ITHR  IEPT  IOFF  IAME  IAMT
13  1.00   30.   30.  100. GS000 IR005   10.
@I IDATE  IROP IRVAL
13 11095 IR004   9.1
13 11096 IR004   9.1
13 11097 IR004  13.7
13 11098 IR004  13.7
13 11099 IR004   9.1
13 11122 IR004   4.6
13 11123 IR004   4.6
13 11124 IR004   4.6
13 11125 IR004   6.4
13 11126 IR004  12.7
13 11132 IR004   9.1
13 11135 IR004   4.6
13 11136 IR004   4.6
13 11138 IR004   4.6
13 11139 IR004   9.1
13 11141 IR004   9.7
13 11144 IR004   9.1
13 11165 IR004   6.4
13 11166 IR004   6.4
13 11167 IR004   6.4
13 11171 IR004   6.4
13 11172 IR004   6.4
13 11173 IR004   6.4
13 11180 IR004  12.7
13 11182 IR004  12.7
13 11186 IR004   6.4
13 11187 IR004   6.4
13 11188 IR004   6.4
13 11191 IR004   6.4
13 11194 IR004   6.4
13 11196 IR004   6.4
13 11198 IR004   6.4
13 11200 IR004   6.4
13 11202 IR004   6.4
13 11203 IR004   6.4
13 11205 IR004   6.4
13 11207 IR004   6.4
13 11209 IR004   6.4
13 11211 IR004   6.4
13 11213 IR004   6.4
13 11215 IR004   6.4
13 11217 IR004  12.7
13 11219 IR004  12.7
13 11221 IR004  12.7
13 11223 IR004  12.7
13 11225 IR004  12.7
13 11227 IR004  12.7
13 11229 IR004  12.7
13 11231 IR004  12.7
13 11233 IR004  12.7
13 11235 IR004  12.7
13 11237 IR004  12.7
13 11240 IR004  12.7
13 11242 IR004   5.1
@I  EFIR  IDEP  ITHR  IEPT  IOFF  IAME  IAMT
14  1.00   30.   30.  100. GS000 IR005   10.
@I IDATE  IROP IRVAL
14 11095 IR004   9.1
14 11096 IR004   9.1
14 11097 IR004  13.7
14 11098 IR004  13.7
14 11099 IR004   9.1
14 11122 IR004   4.6
14 11123 IR004   4.6
14 11124 IR004   4.6
14 11125 IR004   6.4
14 11126 IR004  12.7
14 11132 IR004   9.1
14 11135 IR004   4.6
14 11136 IR004   4.6
14 11138 IR004   4.6
14 11139 IR004   9.1
14 11141 IR004   9.7
14 11144 IR004   9.1
14 11165 IR004   6.4
14 11166 IR004   6.4
14 11167 IR004   6.4
14 11171 IR004   6.4
14 11172 IR004   6.4
14 11173 IR004   6.4
14 11180 IR004  12.7
14 11182 IR004  12.7
14 11186 IR004   6.4
14 11187 IR004   6.4
14 11188 IR004   6.4
14 11191 IR004   6.4
14 11194 IR004   6.4
14 11196 IR004   6.4
14 11198 IR004   6.4
14 11200 IR004   6.4
14 11202 IR004   6.4
14 11203 IR004   6.4
14 11205 IR004   6.4
14 11207 IR004   6.4
14 11209 IR004   6.4
14 11211 IR004   6.4
14 11213 IR004   6.4
14 11215 IR004   6.4
14 11217 IR004   6.4
14 11219 IR004   6.4
14 11221 IR004   6.4
14 11223 IR004   6.4
14 11225 IR004   6.4
14 11227 IR004   6.4
14 11229 IR004   6.4
14 11231 IR004   6.4
14 11233 IR004   6.4
14 11235 IR004   6.4
14 11237 IR004   6.4
14 11240 IR004   6.4
14 11242 IR004  12.7
@I  EFIR  IDEP  ITHR  IEPT  IOFF  IAME  IAMT
15  1.00   30.   30.  100. GS000 IR005   10.
@I IDATE  IROP IRVAL
15 11095 IR004   9.1
15 11096 IR004   9.1
15 11097 IR004  13.7
15 11098 IR004  13.7
15 11099 IR004   9.1
15 11122 IR004   4.6
15 11123 IR004   4.6
15 11124 IR004   4.6
15 11125 IR004   6.4
15 11126 IR004  12.7
15 11132 IR004   9.1
15 11135 IR004   4.6
15 11136 IR004   4.6
15 11138 IR004   4.6
15 11139 IR004   9.1
15 11141 IR004   9.7
15 11144 IR004   9.1
15 11165 IR004   6.4
15 11166 IR004   6.4
15 11167 IR004   6.4
15 11171 IR004   6.4
15 11172 IR004   6.4
15 11173 IR004   6.4
15 11180 IR004  12.7
15 11182 IR004  12.7
15 11186 IR004   6.4
15 11187 IR004   6.4
15 11188 IR004   6.4
15 11191 IR004   6.4
15 11194 IR004   6.4
15 11196 IR004   6.4
15 11198 IR004   6.4
15 11200 IR004   6.4
15 11202 IR004   6.4
15 11203 IR004   6.4
15 11205 IR004   6.4
15 11207 IR004   6.4
15 11209 IR004   6.4
15 11211 IR004   6.4
15 11213 IR004   6.4
15 11215 IR004   6.4
@I  EFIR  IDEP  ITHR  IEPT  IOFF  IAME  IAMT
16  1.00   30.   30.  100. GS000 IR005   10.
@I IDATE  IROP IRVAL
16 11095 IR004   9.1
16 11096 IR004   9.1
16 11097 IR004  13.7
16 11098 IR004  13.7
16 11099 IR004   9.1
16 11122 IR004   4.6
16 11123 IR004   4.6
16 11124 IR004   4.6
16 11125 IR004   6.4
16 11126 IR004  12.7
16 11132 IR004   9.1
16 11135 IR004   4.6
16 11136 IR004   4.6
16 11138 IR004   4.6
16 11139 IR004   9.1
16 11141 IR004   9.7
16 11144 IR004   9.1
16 11165 IR004   6.4
16 11166 IR004   6.4
16 11167 IR004   6.4
16 11171 IR004   6.4
16 11172 IR004   6.4
16 11173 IR004   6.4
16 11180 IR004  12.7
16 11182 IR004  12.7
16 11186 IR004   6.4
16 11187 IR004   6.4
16 11188 IR004   6.4
16 11191 IR004   6.4
16 11217 IR004  12.7
16 11219 IR004  12.7
16 11221 IR004  12.7
16 11223 IR004  12.7
16 11225 IR004  12.7
16 11227 IR004  12.7
16 11229 IR004  12.7
16 11231 IR004  12.7
16 11232 IR004  12.7
16 11235 IR004  12.7
16 11237 IR004  12.7
16 11240 IR004  12.7
16 11242 IR004   7.6
@I  EFIR  IDEP  ITHR  IEPT  IOFF  IAME  IAMT
17  1.00   30.   30.  100. GS000 IR005   10.
@I IDATE  IROP IRVAL
17 11095 IR004   9.1
17 11096 IR004   9.1
17 11097 IR004  13.7
17 11098 IR004  13.7
17 11099 IR004   9.1
17 11122 IR004   4.6
17 11123 IR004   4.6
17 11124 IR004   4.6
17 11125 IR004   6.4
17 11126 IR004  12.7
17 11132 IR004   9.1
17 11135 IR004   4.6
17 11136 IR004   4.6
17 11138 IR004   4.6
17 11139 IR004   9.1
17 11141 IR004   9.7
17 11144 IR004   9.1
17 11165 IR004   6.4
17 11166 IR004   6.4
17 11167 IR004   6.4
17 11171 IR004   6.4
17 11172 IR004   6.4
17 11173 IR004   6.4
17 11180 IR004  12.7
17 11182 IR004  12.7
17 11186 IR004   6.4
17 11187 IR004   6.4
17 11188 IR004   6.4
17 11191 IR004   6.4
17 11217 IR004   6.4
17 11219 IR004   6.4
17 11221 IR004   6.4
17 11223 IR004   6.4
17 11225 IR004   6.4
17 11227 IR004   6.4
17 11229 IR004   6.4
17 11231 IR004   6.4
17 11233 IR004   6.4
17 11234 IR004   6.4
17 11237 IR004   6.4
17 11240 IR004   6.4
17 11242 IR004  12.7
@I  EFIR  IDEP  ITHR  IEPT  IOFF  IAME  IAMT
18  1.00   30.   30.  100. GS000 IR005   10.
@I IDATE  IROP IRVAL
18 11095 IR004   9.1
18 11096 IR004   9.1
18 11097 IR004  13.7
18 11098 IR004  13.7
18 11099 IR004   9.1
18 11121 IR004   4.6
18 11123 IR004   4.6
18 11124 IR004   4.6
18 11125 IR004   6.4
18 11126 IR004  12.7
18 11132 IR004   9.1
18 11135 IR004   4.6
18 11136 IR004   4.6
18 11138 IR004   4.6
18 11139 IR004   9.1
18 11141 IR004   9.6
18 11144 IR004   9.1
18 11165 IR004   6.4
18 11166 IR004   6.4
18 11167 IR004   6.4
18 11171 IR004   6.4
18 11172 IR004   6.4
18 11173 IR004   6.4
18 11180 IR004  12.7
18 11182 IR004  12.7
18 11186 IR004   6.4
18 11187 IR004   6.4
18 11188 IR004   6.4
18 11191 IR004   6.4
@I  EFIR  IDEP  ITHR  IEPT  IOFF  IAME  IAMT
19  1.00   30.   30.  100. GS000 IR005   10.
@I IDATE  IROP IRVAL
19 11095 IR004   9.1
19 11096 IR004   9.1
19 11097 IR004  13.7
19 11098 IR004  13.7
19 11099 IR004   9.1
19 11122 IR004   4.6
19 11123 IR004   4.6
19 11124 IR004   4.6
19 11125 IR004   6.4
19 11126 IR004  12.7
19 11132 IR004   9.1
19 11135 IR004   4.6
19 11136 IR004   4.6
19 11138 IR004   4.6
19 11139 IR004   9.1
19 11141 IR004   9.6
19 11144 IR004   9.1
19 11194 IR004  12.6
19 11196 IR004  12.7
19 11198 IR004  12.7
19 11200 IR004  12.6
19 11202 IR004  12.7
19 11203 IR004  12.7
19 11205 IR004  12.6
19 11207 IR004  12.7
19 11209 IR004  12.7
19 11211 IR004  12.6
19 11213 IR004  12.7
19 11215 IR004  12.7
19 11217 IR004  12.7
19 11219 IR004  12.7
19 11221 IR004  12.7
19 11223 IR004  12.7
19 11225 IR004  12.7
19 11227 IR004  12.7
19 11230 IR004  12.7
19 11232 IR004  12.7
19 11234 IR004  12.7
19 11236 IR004  12.7
19 11238 IR004  12.7
19 11241 IR004  12.7
19 11243 IR004   2.5
@I  EFIR  IDEP  ITHR  IEPT  IOFF  IAME  IAMT
20  1.00   30.   30.  100. GS000 IR005   10.
@I IDATE  IROP IRVAL
20 11095 IR004   9.1
20 11096 IR004   9.1
20 11097 IR004  13.7
20 11098 IR004  13.7
20 11099 IR004   9.1
20 11122 IR004   4.6
20 11123 IR004   4.6
20 11124 IR004   4.6
20 11125 IR004   6.4
20 11126 IR004  12.7
20 11132 IR004   9.1
20 11135 IR004   4.6
20 11136 IR004   4.6
20 11138 IR004   4.6
20 11139 IR004   9.1
20 11141 IR004   9.6
20 11144 IR004   9.1
20 11194 IR004  12.6
20 11196 IR004  12.7
20 11198 IR004  12.7
20 11200 IR004  12.6
20 11202 IR004  12.7
20 11203 IR004  12.7
20 11205 IR004  12.6
20 11207 IR004  12.7
20 11209 IR004  12.7
20 11211 IR004  12.6
20 11213 IR004  12.7
20 11215 IR004  12.7
20 11217 IR004   6.4
20 11219 IR004   6.4
20 11221 IR004   6.4
20 11223 IR004   6.4
20 11225 IR004   6.4
20 11227 IR004   6.4
20 11229 IR004   6.4
20 11231 IR004   6.4
20 11233 IR004   6.4
20 11235 IR004   6.4
20 11237 IR004   6.4
20 11240 IR004   6.4
20 11242 IR004  10.1
@I  EFIR  IDEP  ITHR  IEPT  IOFF  IAME  IAMT
21  1.00   30.   30.  100. GS000 IR005   10.
@I IDATE  IROP IRVAL
21 11095 IR004   9.1
21 11096 IR004   9.1
21 11097 IR004  13.7
21 11098 IR004  13.7
21 11099 IR004   9.1
21 11122 IR004   4.6
21 11123 IR004   4.6
21 11124 IR004   4.6
21 11125 IR004   6.4
21 11126 IR004  12.7
21 11132 IR004   9.1
21 11135 IR004   4.6
21 11136 IR004   4.6
21 11138 IR004   4.6
21 11139 IR004   9.1
21 11141 IR004   9.6
21 11144 IR004   9.1
21 11195 IR004  12.7
21 11196 IR004  12.7
21 11198 IR004  12.7
21 11200 IR004  12.7
21 11202 IR004  12.7
21 11203 IR004  12.7
21 11205 IR004  12.7
21 11207 IR004  12.7
21 11209 IR004  12.7
21 11211 IR004  12.7
21 11213 IR004  12.7
21 11215 IR004  12.7
@I  EFIR  IDEP  ITHR  IEPT  IOFF  IAME  IAMT
22  1.00   30.   30.  100. GS000 IR005   10.
@I IDATE  IROP IRVAL
22 11095 IR004   9.1
22 11096 IR004   9.1
22 11097 IR004  13.7
22 11098 IR004  13.7
22 11099 IR004   9.1
22 11122 IR004   4.6
22 11123 IR004   4.6
22 11124 IR004   4.6
22 11125 IR004   6.4
22 11126 IR004  12.7
22 11132 IR004   9.1
22 11135 IR004   4.6
22 11136 IR004   4.6
22 11138 IR004   4.6
22 11139 IR004   9.1
22 11141 IR004   9.6
22 11144 IR004   9.1
22 11194 IR004   6.4
22 11196 IR004   6.4
22 11198 IR004   6.4
22 11200 IR004   6.4
22 11202 IR004   6.4
22 11203 IR004   6.4
22 11205 IR004   6.4
22 11207 IR004   6.4
22 11209 IR004   6.4
22 11211 IR004   6.4
22 11213 IR004   6.4
22 11215 IR004   6.4
22 11217 IR004  12.7
22 11219 IR004  12.7
22 11221 IR004  12.7
22 11223 IR004  12.7
22 11225 IR004  12.7
22 11227 IR004  12.7
22 11229 IR004  12.7
22 11231 IR004  12.7
22 11233 IR004  12.7
22 11235 IR004  12.7
22 11237 IR004  12.7
22 11240 IR004  12.7
22 11242 IR004   5.1
@I  EFIR  IDEP  ITHR  IEPT  IOFF  IAME  IAMT
23  1.00   30.   30.  100. GS000 IR005   10.
@I IDATE  IROP IRVAL
23 11095 IR004   9.1
23 11096 IR004   9.1
23 11097 IR004  13.7
23 11098 IR004  13.7
23 11099 IR004   9.1
23 11122 IR004   4.6
23 11123 IR004   4.6
23 11124 IR004   4.6
23 11125 IR004   6.4
23 11126 IR004  12.7
23 11132 IR004   9.1
23 11135 IR004   4.6
23 11136 IR004   4.6
23 11138 IR004   4.6
23 11139 IR004   9.1
23 11141 IR004   9.1
23 11144 IR004   9.1
23 11194 IR004   6.4
23 11196 IR004   6.4
23 11198 IR004   6.4
23 11200 IR004   6.4
23 11202 IR004   6.4
23 11203 IR004   6.4
23 11205 IR004   6.4
23 11207 IR004   6.4
23 11209 IR004   6.4
23 11211 IR004   6.4
23 11213 IR004   6.4
23 11215 IR004   6.4
23 11217 IR004   6.4
23 11219 IR004   6.4
23 11221 IR004   6.4
23 11223 IR004   6.4
23 11225 IR004   6.4
23 11227 IR004   6.4
23 11229 IR004   6.4
23 11231 IR004   6.4
23 11233 IR004   6.4
23 11235 IR004   6.4
23 11237 IR004   6.4
23 11240 IR004   6.4
23 11242 IR004  10.1
@I  EFIR  IDEP  ITHR  IEPT  IOFF  IAME  IAMT