*EXP.DETAILS: ETOD1101TF GIDAY, 2012

*GENERAL
@PEOPLE
 Giday, 2012
@ADDRESS
Ofla District, Ethiopia
@SITE
Ofla District, Ethiopia
@ PAREA  PRNO  PLEN  PLDR  PLSP  PLAY HAREA  HRNO  HLEN  HARM.........
    -99   -99   -99   -99   -99   -99   -99   -99   -99   -99

*TREATMENTS                        -------------FACTOR LEVELS------------
@N R O C TNAME.................... CU FL SA IC MP MI MF MR MC MT ME MH SM
 1 1 0 0 0 KG N/HA                  1  1  0  1  1  0  1  0  0  0  0  0  1
 2 1 0 0 23 KG N/HA                 1  1  0  1  1  0  2  0  0  0  0  0  1
 3 1 0 0 46 KG N/HA                 1  1  0  1  1  0  3  0  0  0  0  0  1
 4 1 0 0 69 KG N/HA                 1  1  0  1  1  0  4  0  0  0  0  0  1

*CULTIVARS
@C CR INGENO CNAME
 1 TF IB0157 DZ-Cr-387

*FIELDS
@L ID_FIELD WSTA....  FLSA  FLOB  FLDT  FLDD  FLDS  FLST SLTX  SLDP  ID_SOIL    FLNAME
 1 ETOD0003 ETON       -99     0 DR000     0     0 00000 -99    210  ETOD000002 NASA POWER Weather
@L ...........XCRD ...........YCRD .....ELEV .............AREA .SLEN .FLWR .SLAS FLHST FHDUR
 1               0               0         0                 0     0     0     0   -99   -99
 
*INITIAL CONDITIONS
@C   PCR ICDAT  ICRT  ICND  ICRN  ICRE  ICWD ICRES ICREN ICREP ICRIP ICRID ICNAME
 1    FA 11204     0     0     1     1   -99     0     0     0   100    10 Standardized 10% water 150 kg N/ha mostly in top 30 cm
@C  ICBL  SH2O  SNH4  SNO3
 1     5  .274  1.65  13.8
 1    10  .274  1.65  13.8
 1    20  .274   2.7  22.5
 1    30  .299   2.7  22.5
 1    40  .299  0.15  1.25
 1    50  .299  0.15  1.25
 1    60  .299  0.15  1.25
 1    70  .299  0.15  1.25
 1    80  .299  0.15  1.25
 1    90  .299  0.15  1.25
 1   110  .288     0     0
 1   130  .288     0     0
 1   150  .288     0     0
 1   170  .288     0     0
 1   190  .288     0     0
 1   210  .288     0     0
 
*PLANTING DETAILS
@P PDATE EDATE  PPOP  PPOE  PLME  PLDS  PLRS  PLRD  PLDP  PLWT  PAGE  PENV  PLPH  SPRL                        PLNAME
 1 11205   -99   900   -99     S     U     7     0    .9   -99   -99   -99   -99     0   

*FERTILIZERS (INORGANIC)
@F FDATE  FMCD  FACD  FDEP  FAMN  FAMP  FAMK  FAMC  FAMO  FOCD FERNAME
 1     0 FE019 AP002    10     0     0     0     0     0   -99 No fertilizer
 2     0 FE019 AP002    10    23     0     0     0     0   -99 23 kg N/ha USG
 3     0 FE019 AP002    10    46     0     0     0     0   -99 46 kg N/ha USG
 4     0 FE019 AP002    10    69     0     0     0     0   -99 69 kg N/ha USG

*SIMULATION CONTROLS
@N GENERAL     NYERS NREPS START SDATE RSEED SNAME.................... SMODEL
 1 GE              1     1     S 11204  2150 N RESPONSE                           
@N OPTIONS     WATER NITRO SYMBI PHOSP POTAS DISES  CHEM  TILL   CO2
 1 OP              Y     Y     N     N     N     N     N     N     M
@N METHODS     WTHER INCON LIGHT EVAPO INFIL PHOTO HYDRO NSWIT MESOM MESEV MESOL
 1 ME              M     M     E     R     S     C     R     1     G     S     2
@N MANAGEMENT  PLANT IRRIG FERTI RESID HARVS
 1 MA              R     N     D     N     M
@N OUTPUTS     FNAME OVVEW SUMRY FROPT GROUT CAOUT WAOUT NIOUT MIOUT DIOUT VBOSE CHOUT OPOUT
 1 OU              N     Y     Y     1     Y     N     Y     Y     N     N     Y     N     N

@  AUTOMATIC MANAGEMENT
@N PLANTING    PFRST PLAST PH2OL PH2OU PH2OD PSTMX PSTMN
 1 PL          74303 74317    40   100    30    40    10
@N IRRIGATION  IMDEP ITHRL ITHRU IROFF IMETH IRAMT IREFF
 1 IR             30    50   100 GS000 IR001    10     1
@N NITROGEN    NMDEP NMTHR NAMNT NCODE NAOFF
 1 NI             30    50    25 FE001 GS000
@N RESIDUES    RIPCN RTIME RIDEP
 1 RE            100     1    20
@N HARVEST     HFRST HLAST HPCNP HPCNR
 1 HA              0 75310   100     0


