*EXP.DETAILS: ETUD9701TF TULEMA ET AL, 2005

*GENERAL
@PEOPLE
Tulema, Zapata,Aune,& Sitaula, 2005
@ADDRESS
Ude and Kajima, Ethiopia
@SITE
Ude and Kajima, Ethiopia

*TREATMENTS                        -------------FACTOR LEVELS------------
@N R O C TNAME.................... CU FL SA IC MP MI MF MR MC MT ME MH SM
 1 1 0 0 Ude 1                      1  1  0  1  1  0  1  0  0  0  0  0  1
 2 1 0 0 Ude 2                      1  2  0  2  1  0  1  0  0  0  0  0  1
 3 1 0 0 Kajima                     1  3  0  3  1  0  1  0  0  0  0  0  1

*CULTIVARS
@C CR INGENO CNAME
 1 TF IB0161 DZ-01-354

*FIELDS
@L ID_FIELD WSTA....  FLSA  FLOB  FLDT  FLDD  FLDS  FLST SLTX  SLDP  ID_SOIL    FLNAME
 1 ETud0007 EADA       -99     0 DR000     0     0 00000 -99    100  ETUD000007 Shallow Root Std Ude 1
 2 ETud0008 EADA       -99     0 DR000     0     0 00000 -99    100  ETUD000008 Shallow Root Std Ude 2
 3 ETkj0004 EADA       -99     0 DR000     0     0 00000 -99    100  ETKJ000004 Shallow Root Std Kajima
@L ...........XCRD ...........YCRD .....ELEV .............AREA .SLEN .FLWR .SLAS FLHST FHDUR
 1               0               0         0                 0     0     0     0   -99   -99
 2               0               0         0                 0     0     0     0   -99   -99
 3               0               0         0                 0     0     0     0   -99   -99 

*INITIAL CONDITIONS
@C   PCR ICDAT  ICRT  ICND  ICRN  ICRE  ICWD ICRES ICREN ICREP ICRIP ICRID ICNAME
 1    FA 97182     0     0     1     1   -99     0     0     0   100    10 Shallow Root Std Ude 1 10% water 20 kg N/ha 
@C  ICBL  SH2O  SNH4  SNO3
 1     5  .386    .1   0.7
 1    10  .386    .1   0.7
 1    20  .386    .1   0.7
 1    30  .386    .1   0.7
 1    40  .396    .1   0.7
 1    50  .396    .1   0.7
 1    60  .396    .1   0.7
 1    70  .396    .1   0.7
 1    80  .397    .1   0.7
 1    90  .397    .1   0.7
 1   110  .399    .1   0.7
 1   130  .399    .1   0.7
 1   150  .399    .1   0.7
 1   170  .399    .1   0.7
 1   190  .399    .1   0.7
 1   210  .399    .1   0.7
@C   PCR ICDAT  ICRT  ICND  ICRN  ICRE  ICWD ICRES ICREN ICREP ICRIP ICRID ICNAME
 2    FA 97182     0     0     1     1   -99     0     0     0   100    10 Shallow Root Std Ude 2 10% water 20 kg N/ha 
@C  ICBL  SH2O  SNH4  SNO3
 2     5  .387    .1   0.7
 2    10  .387    .1   0.7
 2    20  .387    .1   0.7
 2    30  .387    .1   0.7
 2    40  .398    .1   0.7
 2    50  .398    .1   0.7
 2    60  .398    .1   0.7
 2    70  .398    .1   0.7
 2    80  .399    .1   0.7
 2    90  .399    .1   0.7
 2   110  .400    .1   0.7
 2   130  .400    .1   0.7
 2   150  .400    .1   0.7
 2   170  .400    .1   0.7
 2   190  .400    .1   0.7
 2   210  .400    .1   0.7
@C   PCR ICDAT  ICRT  ICND  ICRN  ICRE  ICWD ICRES ICREN ICREP ICRIP ICRID ICNAME
 3    FA 97182     0     0     1     1   -99     0     0     0   100    10 Standardized Kajima 10% water 20 kg N/ha 
@C  ICBL  SH2O  SNH4  SNO3
 3     5  .264    .1   0.7
 3    10  .264    .1   0.7
 3    20  .264    .1   0.7
 3    30  .264    .1   0.7
 3    40  .264    .1   0.7
 3    50  .264    .1   0.7
 3    60  .264    .1   0.7
 3    70  .264    .1   0.7
 3    80  .264    .1   0.7
 3    90  .264    .1   0.7
 3   110  .264    .1   0.7
 3   130  .264    .1   0.7
 3   150  .264    .1   0.7
 3   170  .264    .1   0.7
 3   190  .264    .1   0.7
 3   210  .264    .1   0.7
 
*PLANTING DETAILS
@P PDATE EDATE  PPOP  PPOE  PLME  PLDS  PLRS  PLRD  PLDP  PLWT  PAGE  PENV  PLPH  SPRL                        PLNAME
 1 97203   -99   900   -99     S     U     7     0    .9   -99   -99   -99   -99     0                        Same for all sites

*FERTILIZERS (INORGANIC)
@F FDATE  FMCD  FACD  FDEP  FAMN  FAMP  FAMK  FAMC  FAMO  FOCD FERNAME
 1     0 FE005 AP002    10    64    20     0     0     0   -99 Same for all locations

*SIMULATION CONTROLS
@N GENERAL     NYERS NREPS START SDATE RSEED SNAME.................... SMODEL
 1 GE              1     1     S 97182  2150 Rainfed                   
@N OPTIONS     WATER NITRO SYMBI PHOSP POTAS DISES  CHEM  TILL   CO2
 1 OP              Y     Y     N     N     N     N     N     N     M
@N METHODS     WTHER INCON LIGHT EVAPO INFIL PHOTO HYDRO NSWIT MESOM MESEV MESOL
 1 ME              M     M     E     R     S     C     R     1     G     S     2
@N MANAGEMENT  PLANT IRRIG FERTI RESID HARVS
 1 MA              R     R     D     N     M
@N OUTPUTS     FNAME OVVEW SUMRY FROPT GROUT CAOUT WAOUT NIOUT MIOUT DIOUT VBOSE CHOUT OPOUT
 1 OU              N     Y     Y     1     Y     N     Y     Y     N     N     Y     N     N

@  AUTOMATIC MANAGEMENT
@N PLANTING    PFRST PLAST PH2OL PH2OU PH2OD PSTMX PSTMN
 1 PL          74303 74317    40   100    30    40    10
@N IRRIGATION  IMDEP ITHRL ITHRU IROFF IMETH IRAMT IREFF
 1 IR             30    50   100 GS000 IR001    10     1
@N NITROGEN    NMDEP NMTHR NAMNT NCODE NAOFF
 1 NI             30    50    25 FE001 GS000
@N RESIDUES    RIPCN RTIME RIDEP
 1 RE            100     1    20
@N HARVEST     HFRST HLAST HPCNP HPCNR
 1 HA              0 75310   100     0
