*EXP.DETAILS: UHIH1601CI CHIA 2016 Nitrogen fertilizer level

*GENERAL
@PEOPLE
Laura Mack, Ken Boote, Simone Graeff-Honninger
@ADDRESS
University of Hohenheim
@SITE
Southwestern Germany
@ PAREA  PRNO  PLEN  PLDR  PLSP  PLAY HAREA  HRNO  HLEN  HARM.........
     30   -99    10   -99   -99   -99   -99   -99   -99   -99
@NOTES
Agronomy Journal 2020, 112(5):3859-3877; https://doi.org/10.1002/agj2.20305
KJBoote re-calibrated the species & cultivar file (8/12/2021). Differs from paper
because V4.7 code had a lower LAI protection that was "fixed" for V4.8.  Now
the very small seed size gives much lower initial LAI, requiring adjustment
of the SLWREF and other parameters.  For some reason, the SIZLF and SIZREF 
have zero effect so no reason to try those GC.
Have confidence in the IC for N, but not for soil water. Prior residue guessed
Tried Parton SOC with no success.

*TREATMENTS                        -------------FACTOR LEVELS------------
@N R O C TNAME.................... CU FL SA IC MP MI MF MR MC MT ME MH SM
 1 1 1 0 N_N0 2016                  1  1  0  1  1  0  1  0  0  1  0  1  1
 2 1 1 0 N_N1 2016                  1  1  0  1  1  0  2  0  0  1  0  1  1
 3 1 1 0 N_N2 2016                  1  1  0  1  1  0  3  0  0  1  0  1  1

*CULTIVARS
@C CR INGENO CNAME
 1 CI CI0001 Genotype 8

*FIELDS
@L ID_FIELD WSTA....  FLSA  FLOB  FLDT  FLDD  FLDS  FLST SLTX  SLDP  ID_SOIL    FLNAME
 1 UHIH2016 UHIH       -99   -99 DR000   -99   -99   -99 L      -99  UH00002016 -99
@L ...........XCRD ...........YCRD .....ELEV .............AREA .SLEN .FLWR .SLAS FLHST FHDUR
 1             -99             -99       -99               -99   -99   -99   -99   -99   -99

*INITIAL CONDITIONS
@C   PCR ICDAT  ICRT  ICND  ICRN  ICRE  ICWD ICRES ICREN ICREP ICRIP ICRID ICNAME
 1    MZ 16106  1000   -99     1     1   -99  6000   1.2   -99    80     6 60001.2
@C  ICBL  SH2O  SNH4  SNO3
 1    30   -99    .9   1.5
 1    60   -99    .8     1
 1    90   -99    .6   2.4
 1   120   -99    .6   2.2
 1   150   -99    .6   1.1
 1   180   -99    .6   1.1

*PLANTING DETAILS
@P PDATE EDATE  PPOP  PPOE  PLME  PLDS  PLRS  PLRD  PLDP  PLWT  PAGE  PENV  PLPH  SPRL                        PLNAME
 1 16153   -99    17   -99     S     R    50     0     1   -99   -99   -99   -99   -99                        -99

*FERTILIZERS (INORGANIC)
@F FDATE  FMCD  FACD  FDEP  FAMN  FAMP  FAMK  FAMC  FAMO  FOCD FERNAME
 1 16162 FE001 AP002     5     0   -99   -99   -99   -99   -99 N0
 2 16162 FE001 AP002     5    20   -99   -99   -99   -99   -99 N20
 3 16162 FE001 AP002     5    40   -99   -99   -99   -99   -99 N40

*RESIDUES AND ORGANIC FERTILIZER
@R RDATE  RCOD  RAMT  RESN  RESP  RESK  RINP  RDEP  RMET RENAME
 1 16001 RE001   -99   -99   -99   -99   -99   -99   -99 -99

*TILLAGE AND ROTATIONS
@T TDATE TIMPL  TDEP TNAME
 1 16106 TI005     8 -99
 1 16141 TI005     8 -99

*HARVEST DETAILS
@H HDATE  HSTG  HCOM HSIZE   HPC  HBPC HNAME
 1 16292 GS016     H   -99   -99   -99 Chia

*SIMULATION CONTROLS
@N GENERAL     NYERS NREPS START SDATE RSEED SNAME.................... SMODEL
 1 GE              1     1     S 16106  2150 DEFAULT SIMULATION CONTR  CRGRO
@N OPTIONS     WATER NITRO SYMBI PHOSP POTAS DISES  CHEM  TILL   CO2
 1 OP              Y     Y     N     N     N     N     N     Y     M
@N METHODS     WTHER INCON LIGHT EVAPO INFIL PHOTO HYDRO NSWIT MESOM MESEV MESOL
 1 ME              M     M     E     R     S     L     R     1     G     R     2
@N MANAGEMENT  PLANT IRRIG FERTI RESID HARVS
 1 MA              R     N     R     R     R
@N OUTPUTS     FNAME OVVEW SUMRY FROPT GROUT CAOUT WAOUT NIOUT MIOUT DIOUT VBOSE CHOUT OPOUT FMOPT
 1 OU              N     Y     Y     1     Y     Y     Y     Y     Y     N     Y     N     Y     A

@  AUTOMATIC MANAGEMENT
@N PLANTING    PFRST PLAST PH2OL PH2OU PH2OD PSTMX PSTMN
 1 PL          16001 16001    40   100    30    40    10
@N IRRIGATION  IMDEP ITHRL ITHRU IROFF IMETH IRAMT IREFF
 1 IR             30    50   100 GS000 IR001    10     1
@N NITROGEN    NMDEP NMTHR NAMNT NCODE NAOFF
 1 NI             30    50    25 FE001 GS000
@N RESIDUES    RIPCN RTIME RIDEP
 1 RE            100     1    20
@N HARVEST     HFRST HLAST HPCNP HPCNR
 1 HA              0 16001   100     0

