*EXP.DETAILS: PARA1801SB PLANT DENSITIES FOR MATURITY GROUPS IN LOW LATITUDE, BRAZIL

*GENERAL
@PEOPLE
L. S. Sampaio, R. Battisti, M. A. Lana and K. J. Boote
@ADDRESS
Paragominas, Para, Brazil
@SITE
@ PAREA  PRNO  PLEN  PLDR  PLSP  PLAY HAREA  HRNO  HLEN  HARM.........
    200    40   100   -99   100   -99     1     2     1   -99
@NOTES
Sampaio LS, Battisti R, Lana MA, Boote KJ. 2021.
Assessment of sowing dates and plant densities using CSM-CROPGRO-Soybean
for soybean maturity groups in low latitude.
The Journal of Agricultural Science 158(10):819 - 832.

*TREATMENTS                        -------------FACTOR LEVELS------------
@N R O C TNAME.................... CU FL SA IC MP MI MF MR MC MT ME MH SM
 1 1 1 0 MG77_PD10_Jan06 - CAL      1  1  1  1  1  0  1  0  0  0  0  0  1
 2 1 1 0 MG77_PD20_Jan06 - CAL      1  1  1  1  2  0  1  0  0  0  0  0  1
 3 1 1 0 MG77_PD30_Jan06 - CAL      1  1  1  1  3  0  1  0  0  0  0  0  1
 4 1 1 0 MG77_PD40_Jan06 - CAL      1  1  1  1  4  0  1  0  0  0  0  0  1
 5 1 1 0 MG88_PD10_Jan06 - CAL      2  1  1  1  1  0  1  0  0  0  0  0  1
 6 1 1 0 MG88_PD20_Jan06 - CAL      2  1  1  1  2  0  1  0  0  0  0  0  1
 7 1 1 0 MG88_PD40_Jan06 - CAL      2  1  1  1  4  0  1  0  0  0  0  0  1
 8 1 1 0 MG77_PD10_Jan19 - CAL      1  1  1  1  5  0  2  0  0  0  0  0  1
 9 1 1 0 MG77_PD20_Jan19 - CAL      1  1  1  1  6  0  2  0  0  0  0  0  1
10 1 1 0 MG88_PD10_Jan19 - CAL      2  1  1  1  5  0  2  0  0  0  0  0  1
11 1 1 0 MG88_PD20_Jan19 - CAL      2  1  1  1  6  0  2  0  0  0  0  0  1
12 1 1 0 MG77_PD20_Fev16 - CAL      1  1  1  1  8  0  3  0  0  0  0  0  1
13 1 1 0 MG77_PD30_Fev16 - CAL      1  1  1  1  9  0  3  0  0  0  0  0  1
14 1 1 0 MG88_PD10_Fev16 - CAL      2  1  1  1  7  0  3  0  0  0  0  0  1
15 1 1 0 MG88_PD40_Fev16 - CAL      2  1  1  1 10  0  3  0  0  0  0  0  1
16 1 1 0 MG77_PD10_Jan12 - EVAL     1  2  1  2 11  0  4  0  0  0  0  0  2
17 1 1 0 MG77_PD20_Jan12 - EVAL     1  2  1  2 12  0  4  0  0  0  0  0  2
18 1 1 0 MG77_PD30_Jan12 - EVAL     1  2  1  2 13  0  4  0  0  0  0  0  2
19 1 1 0 MG77_PD40_Jan12 - EVAL     1  2  1  2 14  0  4  0  0  0  0  0  2
20 1 1 0 MG88_PD10_Jan12 - EVAL     2  2  1  2 11  0  4  0  0  0  0  0  2
21 1 1 0 MG88_PD20_Jan12 - EVAL     2  2  1  2 12  0  4  0  0  0  0  0  2
22 1 1 0 MG88_PD30_Jan12 - EVAL     2  2  1  2 13  0  4  0  0  0  0  0  2
23 1 1 0 MG88_PD40_Jan12 - EVAL     2  2  1  2 14  0  4  0  0  0  0  0  2

*CULTIVARS
@C CR INGENO CNAME
 1 SB RB0002 MG77PA (13)
 2 SB RB0003 MG88PA (13)

*FIELDS
@L ID_FIELD WSTA....  FLSA  FLOB  FLDT  FLDD  FLDS  FLST SLTX  SLDP  ID_SOIL    FLNAME
 1 00002018 PARA1801   -99   -99 DR000   -99   -99   -99 C      230  BRPA080004 Calibration
 2 00002019 PARA1901   -99   -99 DR000   -99   -99   -99 C      230  BRPA080004 Evaluation
@L ...........XCRD ...........YCRD .....ELEV .............AREA .SLEN .FLWR .SLAS FLHST FHDUR
 1             -47              -3       170               -99   -99   -99   -99   -99   -99
 2             -47              -3       170               -99   -99   -99   -99   -99   -99

*SOIL ANALYSIS
@A SADAT  SMHB  SMPX  SMKE  SANAME
 1 12336 SA011 SA005 SA013  -99
@A  SABL  SADM  SAOC  SANI SAPHW SAPHB  SAPX  SAKE  SASC
 1    10    .9  1.18    .1   5.8   -99  20.6    .2   -99
 1    20   1.1    86   .04   5.3   -99  15.7    .2   -99
 1    30    .9   .55   .03   4.9   -99  10.6    .2   -99
 1    50   1.1   .39   .02     5   -99   9.6    .2   -99
 1    70   1.2    .2   .01     5   -99   6.6    .1   -99

*INITIAL CONDITIONS
@C   PCR ICDAT  ICRT  ICND  ICRN  ICRE  ICWD ICRES ICREN ICREP ICRIP ICRID ICNAME
 1   -99 18001   -99   -99     1     1   230   -99   -99   -99   -99   -99 Calibration
@C  ICBL  SH2O  SNH4  SNO3
 1    10  .414    .1    .5
 1    20  .394    .1    .5
 1    30  .196    .1    .5
 1    50  .253    .1    .5
 1    70  .261    .1    .5
 1   100  .256    .1    .5
 1   150  .256    .1    .5
@C   PCR ICDAT  ICRT  ICND  ICRN  ICRE  ICWD ICRES ICREN ICREP ICRIP ICRID ICNAME
 2   -99 19001   -99   -99     1     1   230   -99   -99   -99   -99   -99 Evaluation
@C  ICBL  SH2O  SNH4  SNO3
 2    10  .414    .1    .5
 2    20  .394    .1    .5
 2    30   .41    .1    .5
 2    50  .396    .1    .5
 2    70  .396    .1    .5
 2   100  .396    .1    .5
 2   150  .396    .1    .5

*PLANTING DETAILS
@P PDATE EDATE  PPOP  PPOE  PLME  PLDS  PLRS  PLRD  PLDP  PLWT  PAGE  PENV  PLPH  SPRL                        PLNAME
 1 18006 18010    10    10     S     R    50   -99     5   -99   -99   -99   -99   -99                        06JAN18 PD10
 2 18006 18010    20    20     S     R    50   -99     5   -99   -99   -99   -99   -99                        06JAN18 PD20
 3 18006 18010    30    30     S     R    50   -99     5   -99   -99   -99   -99   -99                        06JAN18 PD30
 4 18006 18010    40    40     S     R    50   -99     5   -99   -99   -99   -99   -99                        06JAN18 PD40
 5 18019 18024    10    10     S     R    50   225     3   -99   -99   -99   -99   -99                        19JAN18 PD10
 6 18019 18024    20    20     S     R    50   225     3   -99   -99   -99   -99   -99                        19JAN18 PD20																												
 7 18047 18052    10    10     S     R    50   225     3   -99   -99   -99   -99   -99                        16FEV18 PD10
 8 18047 18052    20    20     S     R    50   225     3   -99   -99   -99   -99   -99                        16FEV18 PD20
 9 18047 18052    30    30     S     R    50   225     3   -99   -99   -99   -99   -99                        16FEV18 PD30
10 18047 18052    40    40     S     R    50   225     3   -99   -99   -99   -99   -99                        16FEV18 PD40
11 19012 19016    10    10     S     R    50     0     3   -99   -99   -99   -99   -99                        12JAN19 PD10
12 19012 19016    20    20     S     R    50     0     3   -99   -99   -99   -99   -99                        12JAN19 PD20
13 19012 19016    30    30     S     R    50     0     3   -99   -99   -99   -99   -99                        12JAN19 PD30
14 19012 19016    40    40     S     R    50     0     3   -99   -99   -99   -99   -99                        12JAN19 PD40

*IRRIGATION AND WATER MANAGEMENT
@I  EFIR  IDEP  ITHR  IEPT  IOFF  IAME  IAMT IRNAME
 1     1    30    50   100 GS000 IR001    10 -99
@I IDATE  IROP IRVAL
 1 13049   -99   -99

*FERTILIZERS (INORGANIC)
@F FDATE  FMCD  FACD  FDEP  FAMN  FAMP  FAMK  FAMC  FAMO  FOCD FERNAME
 1 18006 FE007 AP003    10    23    98   -99   -99   -99   -99 1-2018
 2 18019 FE007 AP003    10    23    98   -99   -99   -99   -99 2-2018
 3 18047 FE007 AP003    10    23    98   -99   -99   -99   -99 3-2018
 4 19012 FE007 AP003    10    23    98   -99   -99   -99   -99 1-2019

*CHEMICAL APPLICATIONS
@C CDATE CHCOD CHAMT  CHME CHDEP   CHT..CHNAME
 1 12336 CH001   -99   -99   -99   -99  -99

*TILLAGE AND ROTATIONS
@T TDATE TIMPL  TDEP TNAME
 1 12336 TI001   -99 -99

*HARVEST DETAILS
@H HDATE  HSTG  HCOM HSIZE   HPC  HBPC HNAME
 1 12336 GS000   -99   -99   -99   -99 Soybean

*SIMULATION CONTROLS
@N GENERAL     NYERS NREPS START SDATE RSEED SNAME.................... SMODEL
 1 GE              1     1     S 18001  2150 Calibration               CRGRO
@N OPTIONS     WATER NITRO SYMBI PHOSP POTAS DISES  CHEM  TILL   CO2
 1 OP              Y     Y     Y     N     N     N     N     N     M
@N METHODS     WTHER INCON LIGHT EVAPO INFIL PHOTO HYDRO NSWIT MESOM MESEV MESOL
 1 ME              M     M     E     R     R     L     R     1     G     S     2
@N MANAGEMENT  PLANT IRRIG FERTI RESID HARVS
 1 MA              R     R     R     R     M
@N OUTPUTS     FNAME OVVEW SUMRY FROPT GROUT CAOUT WAOUT NIOUT MIOUT DIOUT VBOSE CHOUT OPOUT FMOPT
 1 OU              N     Y     Y     1     Y     Y     Y     Y     Y     N     Y     N     Y     A

@  AUTOMATIC MANAGEMENT
@N PLANTING    PFRST PLAST PH2OL PH2OU PH2OD PSTMX PSTMN
 1 PL          12001 12001    40   100    30    40    10
@N IRRIGATION  IMDEP ITHRL ITHRU IROFF IMETH IRAMT IREFF
 1 IR             30    70   100 GS000 IR004    10     1
@N NITROGEN    NMDEP NMTHR NAMNT NCODE NAOFF
 1 NI             30    50    25 FE001 GS000
@N RESIDUES    RIPCN RTIME RIDEP
 1 RE            100     1    20
@N HARVEST     HFRST HLAST HPCNP HPCNR
 1 HA              0 01001   100     0

@N GENERAL     NYERS NREPS START SDATE RSEED SNAME.................... SMODEL
 2 GE              1     1     S 19001  2150 Evaluation                CRGRO
@N OPTIONS     WATER NITRO SYMBI PHOSP POTAS DISES  CHEM  TILL   CO2
 2 OP              Y     Y     Y     N     N     N     N     N     M
@N METHODS     WTHER INCON LIGHT EVAPO INFIL PHOTO HYDRO NSWIT MESOM MESEV MESOL
 2 ME              M     M     E     R     R     L     R     1     G     S     2
@N MANAGEMENT  PLANT IRRIG FERTI RESID HARVS
 2 MA              R     R     R     R     M
@N OUTPUTS     FNAME OVVEW SUMRY FROPT GROUT CAOUT WAOUT NIOUT MIOUT DIOUT VBOSE CHOUT OPOUT FMOPT
 2 OU              N     Y     Y     1     Y     Y     Y     Y     Y     N     Y     N     Y     A

@  AUTOMATIC MANAGEMENT
@N PLANTING    PFRST PLAST PH2OL PH2OU PH2OD PSTMX PSTMN
 2 PL          12001 12001    40   100    30    40    10
@N IRRIGATION  IMDEP ITHRL ITHRU IROFF IMETH IRAMT IREFF
 2 IR             30    70   100 GS000 IR004    10     1
@N NITROGEN    NMDEP NMTHR NAMNT NCODE NAOFF
 2 NI             30    50    25 FE001 GS000
@N RESIDUES    RIPCN RTIME RIDEP
 2 RE            100     1    20
@N HARVEST     HFRST HLAST HPCNP HPCNR
 2 HA              0 01001   100     0



