*EXP.DETAILS: UFWM1401SR STRAWBERRY GROWTH AND YIELD ANALYSIS TRIAL
!Development and improvement of the CROPGRO-Strawberry model. Scientia Horticulturae, 291, 110538.
!https://doi.org/10.1016/j.scienta.2021.110538.

*GENERAL
@PEOPLE
Hopf, A., Boote, K. J., Oh, J., Guan, Z., Agehara, S., Shelia, V., Whitaker, V. M., Asseng, S., Zhao X., & Hoogenboom, G.

@ADDRESS
University Of Florida Gulf Coast Research And Education Center, 14625 Co Rd 672, Wimauma, FL 33598, USA
@SITE
Wimauma

*TREATMENTS                        -------------FACTOR LEVELS------------
@N R O C TNAME.................... CU FL SA IC MP MI MF MR MC MT ME MH SM
 1 1 1 0 Radiance                   1  1  0  0  1  0  0  0  0  0  0  1  1
 2 1 1 0 Sensation                  2  1  0  0  1  0  0  0  0  0  0  1  1

*CULTIVARS
@C CR INGENO CNAME
 1 SR SR0001 Radiance
 2 SR SR0002 Sensation

*FIELDS
@L ID_FIELD WSTA....  FLSA  FLOB  FLDT  FLDD  FLDS  FLST SLTX  SLDP  ID_SOIL    FLNAME
 1 UFWM0001 UFWM       -99   -99 DR000   -99   -99   -99 -99    -99  UFGA010700 -99
@L ...........XCRD ...........YCRD .....ELEV .............AREA .SLEN .FLWR .SLAS FLHST FHDUR
 1             -99             -99       -99               -99   -99   -99   -99   -99   -99

*INITIAL CONDITIONS
@C   PCR ICDAT  ICRT  ICND  ICRN  ICRE  ICWD ICRES ICREN ICREP ICRIP ICRID ICNAME
 1    FA 14213   -99   -99     1     1   -99   -99   -99   -99   -99   -99 -99
@C  ICBL  SH2O  SNH4  SNO3
 1   -99   -99   -99   -99

*PLANTING DETAILS
@P PDATE EDATE  PPOP  PPOE  PLME  PLDS  PLRS  PLRD  PLDP  PLWT  PAGE  PENV  PLPH  SPRL                        PLNAME
 1 14282   -99   4.3   4.3     T     R   121    90    10   176    30    20     1   -99                        -99

*HARVEST DETAILS
@H HDATE  HSTG  HCOM HSIZE   HPC  HBPC HNAME
 1 14327 GS000   -99   -99   -99   -99   -99 
 1 14334 GS000   -99   -99   -99   -99   -99
 1 14337 GS000   -99   -99   -99   -99   -99
 1 14341 GS000   -99   -99   -99   -99   -99
 1 14344 GS000   -99   -99   -99   -99   -99
 1 14348 GS000   -99   -99   -99   -99   -99
 1 14351 GS000   -99   -99   -99   -99   -99
 1 14354 GS000   -99   -99   -99   -99   -99
 1 14357 GS000   -99   -99   -99   -99   -99
 1 14362 GS000   -99   -99   -99   -99   -99
 1 15001 GS000   -99   -99   -99   -99   -99
 1 15004 GS000   -99   -99   -99   -99   -99
 1 15007 GS000   -99   -99   -99   -99   -99
 1 15011 GS000   -99   -99   -99   -99   -99
 1 15014 GS000   -99   -99   -99   -99   -99
 1 15018 GS000   -99   -99   -99   -99   -99
 1 15021 GS000   -99   -99   -99   -99   -99
 1 15025 GS000   -99   -99   -99   -99   -99
 1 15028 GS000   -99   -99   -99   -99   -99
 1 15032 GS000   -99   -99   -99   -99   -99
 1 15035 GS000   -99   -99   -99   -99   -99
 1 15039 GS000   -99   -99   -99   -99   -99
 1 15042 GS000   -99   -99   -99   -99   -99
 1 15046 GS000   -99   -99   -99   -99   -99
 1 15049 GS000   -99   -99   -99   -99   -99
 1 15053 GS000   -99   -99   -99   -99   -99
 1 15056 GS000   -99   -99   -99   -99   -99
 1 15060 GS000   -99   -99   -99   -99   -99
 1 15063 GS000   -99   -99   -99   -99   -99
 1 15067 GS000   -99   -99   -99   -99   -99
 1 15070 GS000   -99   -99   -99   -99   -99
 1 15074 GS000   -99   -99   -99   -99   -99
 1 15077 GS000   -99   -99   -99   -99   -99
 1 15081 GS000   -99   -99   -99   -99   -99
 1 15084 GS000   -99   -99   -99   -99   -99
 1 15087 GS000   -99   -99   -99   -99   -99

*SIMULATION CONTROLS
@N GENERAL     NYERS NREPS START SDATE RSEED SNAME.................... SMODEL
 1 GE              1     1     S 14274  2150 DEFAULT SIMULATION CONTR
@N OPTIONS     WATER NITRO SYMBI PHOSP POTAS DISES  CHEM  TILL   CO2
 1 OP              N     N     N     N     N     N     N     N     M
@N METHODS     WTHER INCON LIGHT EVAPO INFIL PHOTO HYDRO NSWIT MESOM MESEV MESOL
 1 ME              M     M     E     R     S     L     R     1     G     S     2
@N MANAGEMENT  PLANT IRRIG FERTI RESID HARVS
 1 MA              R     R     R     R     R
@N OUTPUTS     FNAME OVVEW SUMRY FROPT GROUT CAOUT WAOUT NIOUT MIOUT DIOUT VBOSE CHOUT OPOUT FMOPT
 1 OU              N     Y     Y     1     Y     Y     Y     Y     Y     N     Y     N     Y     A

@  AUTOMATIC MANAGEMENT
@N PLANTING    PFRST PLAST PH2OL PH2OU PH2OD PSTMX PSTMN
 1 PL          14001 14001    40   100    30    40    10
@N IRRIGATION  IMDEP ITHRL ITHRU IROFF IMETH IRAMT IREFF
 1 IR             30    80   100 GS000 IR004    10     1
@N NITROGEN    NMDEP NMTHR NAMNT NCODE NAOFF
 1 NI             30    50    25 FE001 GS000
@N RESIDUES    RIPCN RTIME RIDEP
 1 RE            100     1    20
@N HARVEST     HFRST HLAST HPCNP HPCNR
 1 HA              0 01001   100     0