*EXP.DETAILS: CHWC0014SQ CHILLICOTHE, TX WHEAT COTTON ROTATION-DRYLAND

*GENERAL
@PEOPLE
Pradip Adhikari, Srinivasulu Ale, Nina Omani, Paul DeLaune
@ADDRESS
Texas A&M AgriLife Research and Extension Center, Vernon, TX 76384
@SITE
Chillicothe, TX
@ PAREA  PRNO  PLEN  PLDR  PLSP  PLAY HAREA  HRNO  HLEN  HARM.........
    -99   -99   -99   -99   -99   -99   -99   -99   -99   -99
@NOTES
Simulated effects of winter wheat cover crop on cotton production systems of the Texas Rolling Plains
Trans. ASABE 60(6): 2083-2096; https://doi.org/10.13031/trans.12272
Pradip Adhikari and Nina Omani worked as Postdocs in Srinivasulu Ale’s research program during 2014-2017
Measured data from Paul DeLaune’s long-term cover crop experiments at Chillicothe, TX were used for model evaluation


*TREATMENTS                        -------------FACTOR LEVELS------------
@N R O C TNAME.................... CU FL SA IC MP MI MF MR MC MT ME MH SM
 1 1 1 0 Cotton11                   1  1  1  1  1  0  0  0  0  1  0  1  1
 1 2 1 0 Fallow11F                  3  1  0  0  0  0  0  0  0  0  0  2  3
 1 3 1 0 Wheat11-12                 2  1  0  0  2  0  0  0  0  2  0  3  2
 1 4 1 0 Fallow12S                  3  1  0  0  0  0  0  0  0  0  0  4  3
 1 5 1 0 Cotton12                   1  1  0  0  3  0  0  0  0  3  0  5  1
 1 6 1 0 Fallow12F                  3  1  0  0  0  0  0  0  0  0  0  6  3
 1 7 1 0 Wheat12-13                 2  1  0  0  4  0  0  0  0  4  0  7  2
 1 8 1 0 Fallow13S                  3  1  0  0  0  0  0  0  0  0  0  8  3
 1 9 1 0 Cotton13                   1  1  0  0  5  0  0  0  0  5  0  9  1
 110 1 0 Fallow13F                  3  1  0  0  0  0  0  0  0  0  0 10  3
 111 1 0 Wheat13-14                 2  1  0  0  6  0  0  0  0  6  0 11  2
 112 1 0 Fallow14S                  3  1  0  0  0  0  0  0  0  0  0 12  3
 113 1 0 Cotton14                   1  1  0  0  7  0  0  0  0  7  0 13  1
 114 1 0 Fallow14F                  3  1  0  0  0  0  0  0  0  0  0 14  3
 115 1 0 Wheat14-15                 2  1  0  0  8  0  0  0  0  8  0 15  2
 116 1 0 Fallow15S                  3  1  0  0  0  0  0  0  0  0  0 16  3
 117 1 0 Cotton15                   1  1  0  0  9  0  0  0  0  9  0 17  1

*CULTIVARS
@C CR INGENO CNAME
 1 CO IB0006 Deltapine 1219
 2 WH TX0001 TAMU112
 3 FA IB0001 FALLOW

*FIELDS
@L ID_FIELD WSTA....  FLSA  FLOB  FLDT  FLDD  FLDS  FLST SLTX  SLDP  ID_SOIL    FLNAME
 1 CHWT0001 TXCH1106   -99     0 DR000     0     0 00000 CL     140  TXCL120008 Same for all the crops
@L ...........XCRD ...........YCRD .....ELEV .............AREA .SLEN .FLWR .SLAS FLHST FHDUR
 1               0               0         0                 0     0     0     0   -99   -99

*SOIL ANALYSIS
@A SADAT  SMHB  SMPX  SMKE  SANAME
 1 14110   -99   -99   -99  -99
@A  SABL  SADM  SAOC  SANI SAPHW SAPHB  SAPX  SAKE  SASC
 1     5   1.4   .31   .04   7.6   -99    29   222   .63
 1    15   1.4   .31   .03   7.7   -99    29   222   .63
 1    20   1.4   .33   .04   7.7   -99    17   178    .6
 1    40   1.5   .33   .04   7.8   -99     5   168   .58
 1    60   1.5   .33   .04   7.9   -99     4   172   .52
 1    80   1.5   .33   .03   7.9   -99     5   178   .52
 1   100   1.5   .33   .03   8.2   -99     5   178   .47
 1   120   1.5   .33   .03   8.2   -99     5   155   .47
 1   140   1.5   .33   .03   8.2   -99     5   158   .47

*INITIAL CONDITIONS
@C   PCR ICDAT  ICRT  ICND  ICRN  ICRE  ICWD ICRES ICREN ICREP ICRIP ICRID ICNAME
 1    WH 11001   100     0     1     1   -99  1000    .7     2   100     5 Cotton
@C  ICBL  SH2O  SNH4  SNO3
 1     5   .14     8   2.5
 1    15   .14     8   2.5
 1    20   .14     8   2.5
 1    40   .14     8   2.5
 1    60   .14     8     3
 1    80   .14   8.5     3
 1   100   .14   8.5     3
 1   120   .14   8.5     3
 1   140   .14   8.5     3

*PLANTING DETAILS
@P PDATE EDATE  PPOP  PPOE  PLME  PLDS  PLRS  PLRD  PLDP  PLWT  PAGE  PENV  PLPH  SPRL                        PLNAME
 1 11159   -99    13    13     S     R   102     0     4   -99   -99   -99   -99     0                        Cotton11
 2 11304   -99   102   102     S     R    20     0     2   -99   -99   -99   -99     0                        Wheat11-12
 3 12164   -99    13    13     S     R   102     0     4   -99   -99   -99   -99     0                        Cotton12
 4 12302   -99   102   102     S     R    20     0     2   -99   -99   -99   -99     0                        Wheat12-13
 5 13161   -99    13    13     S     R   102     0     4   -99   -99   -99   -99     0                        Cotton13
 6 13303   -99   102   102     S     R    20     0     2   -99   -99   -99   -99     0                        Wheat13-14
 7 14156   -99    13    13     S     R   102     0     4   -99   -99   -99   -99     0                        Cotton14
 8 14303   -99   102   102     S     R    20     0     2   -99   -99   -99   -99     0                        Wheat14-15
 9 15162   -99    13    13     S     R   102     0     4   -99   -99   -99   -99     0                        Cotton15

*IRRIGATION AND WATER MANAGEMENT
@I  EFIR  IDEP  ITHR  IEPT  IOFF  IAME  IAMT IRNAME
 1   .95    30    30   100 GS000 IR005     0 2011
@I IDATE  IROP IRVAL
 1 11305 IR005     0
@I  EFIR  IDEP  ITHR  IEPT  IOFF  IAME  IAMT IRNAME
 2   .95    30    30   100 GS000 IR005     0 2012
@I IDATE  IROP IRVAL
 2 12303 IR005     0
@I  EFIR  IDEP  ITHR  IEPT  IOFF  IAME  IAMT IRNAME
 3   .95    30    30   100 GS000 IR005     0 2013
@I IDATE  IROP IRVAL
 3 13304 IR005     0
@I  EFIR  IDEP  ITHR  IEPT  IOFF  IAME  IAMT IRNAME
 4   .95    30    30   100 GS000 IR005     0 2014
@I IDATE  IROP IRVAL
 4 14304 IR005     0
@I  EFIR  IDEP  ITHR  IEPT  IOFF  IAME  IAMT IRNAME
 5   .95    30    30   100 GS000 IR005     0 2015
@I IDATE  IROP IRVAL
 5 15304 IR005     0

*FERTILIZERS (INORGANIC)
@F FDATE  FMCD  FACD  FDEP  FAMN  FAMP  FAMK  FAMC  FAMO  FOCD FERNAME
 1 11110 FE005 AP004     5     0     0     0     0     0   -99 Not applied

*RESIDUES AND ORGANIC FERTILIZER
@R RDATE  RCOD  RAMT  RESN  RESP  RESK  RINP  RDEP  RMET RENAME
 1 11110   -99   -99   -99   -99   -99   -99   -99   -99 Not applied

*CHEMICAL APPLICATIONS
@C CDATE CHCOD CHAMT  CHME CHDEP   CHT..CHNAME
 1 11110   -99     0 AP003   -99   -99  None

*TILLAGE AND ROTATIONS
@T TDATE TIMPL  TDEP TNAME
 1 11159 TI034     5 Cotton11
 2 11298 TI034     5 Wheat11-12
 3 12160 TI034     5 Cotton12
 4 12299 TI034     5 Wheat12-13
 5 13159 TI034     5 Cotton13
 6 13298 TI034     5 Wheat13-14
 7 14159 TI034     5 Cotton14
 8 14303 TI034     5 Wheat14-15
 9 15159 TI034     5 Cotton15

*ENVIRONMENT MODIFICATIONS
@E ODATE EDAY  ERAD  EMAX  EMIN  ERAIN ECO2  EDEW  EWIND ENVNAME  
 1 11110 A   0 A   0 A   0 A   0 A 0.0 A   0 A   0 A   0 

*HARVEST DETAILS
@H HDATE  HSTG  HCOM HSIZE   HPC  HBPC HNAME
 1 11298 GS011     H     A   100     0 Cotton11
 2 11303 GS002     C     A   100     0 Fallow11F
 3 12121 GS011     H     A   100     0 Wheat11-12
 4 12163 GS002     C     A   100     0 Fallow12S
 5 12298 GS011     H     A   100     0 Cotton12
 6 12301 GS002     C     A   100     0 Fallow12F
 7 13114 GS011     H     A   100     0 Wheat12-13
 8 13160 GS002     C     A   100     0 Fallow13S
 9 13299 GS011     H     A   100     0 Cotton13
10 13302 GS002     C     A   100     0 Fallow13F
11 14110 GS011     H     A   100     0 Wheat13-14
12 14155 GS002     C     A   100     0 Fallow14S
13 14297 GS011     H     A   100     0 Cotton14
14 14302 GS002     C     A   100     0 Fallow14F
15 15120 GS011     H     A   100     0 Wheat14-15
16 15155 GS011     C     A   100     0 Fallow15s
17 15297 GS011     H     A   100     0 Cotton15

*SIMULATION CONTROLS
@N GENERAL     NYERS NREPS START SDATE RSEED SNAME.................... SMODEL
 1 GE              5     1     S 11001     0 Cotton                    CRGRO
@N OPTIONS     WATER NITRO SYMBI PHOSP POTAS DISES  CHEM  TILL   CO2
 1 OP              Y     Y     N     N     N     N     N     Y     D
@N METHODS     WTHER INCON LIGHT EVAPO INFIL PHOTO HYDRO NSWIT MESOM MESEV MESOL
 1 ME              M     M     E     G     S     L     R     1     P     S     2
@N MANAGEMENT  PLANT IRRIG FERTI RESID HARVS
 1 MA              R     N     N     N     R
@N OUTPUTS     FNAME OVVEW SUMRY FROPT GROUT CAOUT WAOUT NIOUT MIOUT DIOUT VBOSE CHOUT OPOUT FMOPT
 1 OU              Y     Y     Y     1     Y     N     Y     Y     N     N     Y     N     Y     A

@  AUTOMATIC MANAGEMENT
@N PLANTING    PFRST PLAST PH2OL PH2OU PH2OD PSTMX PSTMN
 1 PL          11307 15296    10   100    30    40    10
@N IRRIGATION  IMDEP ITHRL ITHRU IROFF IMETH IRAMT IREFF
 1 IR             30    50   100 IB001 IB001    10   .75
@N NITROGEN    NMDEP NMTHR NAMNT NCODE NAOFF
 1 NI            100    50    25 IB001 IB001
@N RESIDUES    RIPCN RTIME RIDEP
 1 RE            100     1    20
@N HARVEST     HFRST HLAST HPCNP HPCNR
 1 HA              0 15297   100     0

@N GENERAL     NYERS NREPS START SDATE RSEED SNAME.................... SMODEL
 2 GE              5     1     S 11001     0 wheat		       CSCER
@N OPTIONS     WATER NITRO SYMBI PHOSP POTAS DISES  CHEM  TILL   CO2
 2 OP              Y     Y     N     N     N     N     N     Y     D
@N METHODS     WTHER INCON LIGHT EVAPO INFIL PHOTO HYDRO NSWIT MESOM MESEV MESOL
 2 ME              M     M     E     G     S     C     R     1     P     S     2
@N MANAGEMENT  PLANT IRRIG FERTI RESID HARVS
 2 MA              R     N     N     N     R
@N OUTPUTS     FNAME OVVEW SUMRY FROPT GROUT CAOUT WAOUT NIOUT MIOUT DIOUT VBOSE CHOUT OPOUT FMOPT
 2 OU              Y     Y     Y     1     Y     N     Y     Y     N     N     Y     N     Y     A

@  AUTOMATIC MANAGEMENT
@N PLANTING    PFRST PLAST PH2OL PH2OU PH2OD PSTMX PSTMN
 2 PL          11304 14303    10   100    30    40    10
@N IRRIGATION  IMDEP ITHRL ITHRU IROFF IMETH IRAMT IREFF
 2 IR             30    50   100 IB001 IB001    10   .75
@N NITROGEN    NMDEP NMTHR NAMNT NCODE NAOFF
 2 NI             30    50    25 IB001 IB001
@N RESIDUES    RIPCN RTIME RIDEP
 2 RE            100     1    20
@N HARVEST     HFRST HLAST HPCNP HPCNR
 2 HA              0 15298   100     0

@N GENERAL     NYERS NREPS START SDATE RSEED SNAME.................... SMODEL
 3 GE              5     1     S 11001     0 Fallow                    CRGRO
@N OPTIONS     WATER NITRO SYMBI PHOSP POTAS DISES  CHEM  TILL   CO2
 3 OP              Y     Y     N     N     N     N     N     Y     D
@N METHODS     WTHER INCON LIGHT EVAPO INFIL PHOTO HYDRO NSWIT MESOM MESEV MESOL
 3 ME              M     M     E     G     S     L     R     1     P     S     2
@N MANAGEMENT  PLANT IRRIG FERTI RESID HARVS
 3 MA              R     N     N     N     R
@N OUTPUTS     FNAME OVVEW SUMRY FROPT GROUT CAOUT WAOUT NIOUT MIOUT DIOUT VBOSE CHOUT OPOUT FMOPT
 3 OU              Y     Y     Y     1     Y     N     Y     Y     N     N     Y     N     Y     A

@  AUTOMATIC MANAGEMENT
@N PLANTING    PFRST PLAST PH2OL PH2OU PH2OD PSTMX PSTMN
 3 PL          11297 15117    10   100    30    40    10
@N IRRIGATION  IMDEP ITHRL ITHRU IROFF IMETH IRAMT IREFF
 3 IR             30    50   100 IB001 IB001    10   .95
@N NITROGEN    NMDEP NMTHR NAMNT NCODE NAOFF
 3 NI             30    50    25 IB001 IB001
@N RESIDUES    RIPCN RTIME RIDEP
 3 RE            100     1    20
@N HARVEST     HFRST HLAST HPCNP HPCNR
 3 HA              0 15298   100     0



